* SPICE NETLIST
***************************************

.SUBCKT esdscr A K PD SX
.ENDS
***************************************
.SUBCKT subc SUBCON SUB
.ENDS
***************************************
.SUBCKT sblkndres D S G
.ENDS
***************************************
.SUBCKT ncap G S B D
.ENDS
***************************************
.SUBCKT dgncap G S B D
.ENDS
***************************************
.SUBCKT diffhavar ANODE1 ANODE2 CATHODE BULK
.ENDS
***************************************
.SUBCKT diffncap GA GB NW SX
.ENDS
***************************************
.SUBCKT esdnsh_base d g s b
.ENDS
***************************************
.SUBCKT esdpsh_base d g s b
.ENDS
***************************************
.SUBCKT bondpad in gp sub
.ENDS
***************************************
.SUBCKT devicepad pad
.ENDS
***************************************
.SUBCKT efuse IN OUT
.ENDS
***************************************
.SUBCKT indp out in bulk
.ENDS
***************************************
.SUBCKT ind out in bulk
.ENDS
***************************************
.SUBCKT inds out in bulk
.ENDS
***************************************
.SUBCKT symindp outpr outse ct BULK
.ENDS
***************************************
.SUBCKT symind outpr outse ct BULK
.ENDS
***************************************
.SUBCKT rfline in out bulk
.ENDS
***************************************
.SUBCKT singlewire VA VB VSHIELD
.ENDS
***************************************
.SUBCKT coupledwires VA1 VA2 VB1 VB2 VSHIELD
.ENDS
***************************************
.SUBCKT singlecpw va vb vshield
.ENDS
***************************************
.SUBCKT coupledcpw va1 va2 vb1 vb2 vshield
.ENDS
***************************************
.SUBCKT corrPoint cp
.ENDS
***************************************
.SUBCKT FILL1TS
** N=4 EP=0 IP=0 FDC=0
*.SEEDPROM
*.CALIBRE ISOLATED NETS: VSS VDD
.ENDS
***************************************
.SUBCKT FILL2TS
** N=6 EP=0 IP=0 FDC=0
*.SEEDPROM
*.CALIBRE ISOLATED NETS: VSS VDD
.ENDS
***************************************
.SUBCKT ICV_1
** N=2 EP=0 IP=4 FDC=0
*.SEEDPROM
.ENDS
***************************************
.SUBCKT INVX1TS
** N=14 EP=0 IP=0 FDC=0
*.SEEDPROM
*.CALIBRE ISOLATED NETS: VSS VDD A Y
.ENDS
***************************************
.SUBCKT NOR2X1TS
** N=20 EP=0 IP=0 FDC=0
*.SEEDPROM
*.CALIBRE ISOLATED NETS: B VDD A Y VSS
.ENDS
***************************************
.SUBCKT FILL4TS
** N=10 EP=0 IP=0 FDC=0
*.SEEDPROM
*.CALIBRE ISOLATED NETS: VSS VDD
.ENDS
***************************************
.SUBCKT ICV_2
** N=2 EP=0 IP=4 FDC=0
*.SEEDPROM
.ENDS
***************************************
.SUBCKT INVX2TS
** N=14 EP=0 IP=0 FDC=0
*.SEEDPROM
*.CALIBRE ISOLATED NETS: A VSS VDD Y
.ENDS
***************************************
.SUBCKT OR2X1TS
** N=25 EP=0 IP=0 FDC=0
*.SEEDPROM
*.CALIBRE ISOLATED NETS: VSS A B VDD Y
.ENDS
***************************************
.SUBCKT NAND2BX2TS
** N=31 EP=0 IP=0 FDC=0
*.SEEDPROM
*.CALIBRE ISOLATED NETS: AN B VDD Y VSS
.ENDS
***************************************
.SUBCKT NOR2BX2TS
** N=34 EP=0 IP=0 FDC=0
*.SEEDPROM
*.CALIBRE ISOLATED NETS: AN B Y VSS VDD
.ENDS
***************************************
.SUBCKT FILL8TS
** N=18 EP=0 IP=0 FDC=0
*.SEEDPROM
*.CALIBRE ISOLATED NETS: VSS VDD
.ENDS
***************************************
.SUBCKT CLKAND2X2TS
** N=23 EP=0 IP=0 FDC=0
*.SEEDPROM
*.CALIBRE ISOLATED NETS: A B VSS VDD Y
.ENDS
***************************************
.SUBCKT NOR2X2TS
** N=26 EP=0 IP=0 FDC=0
*.SEEDPROM
*.CALIBRE ISOLATED NETS: A B Y VSS VDD
.ENDS
***************************************
.SUBCKT AOI21X4TS
** N=48 EP=0 IP=0 FDC=0
*.SEEDPROM
*.CALIBRE ISOLATED NETS: A0 A1 VDD B0 VSS Y
.ENDS
***************************************
.SUBCKT AOI21X2TS
** N=43 EP=0 IP=0 FDC=0
*.SEEDPROM
*.CALIBRE ISOLATED NETS: A1 VDD A0 B0 VSS Y
.ENDS
***************************************
.SUBCKT OR2X2TS
** N=26 EP=0 IP=0 FDC=0
*.SEEDPROM
*.CALIBRE ISOLATED NETS: A B VSS VDD Y
.ENDS
***************************************
.SUBCKT NAND2X1TS
** N=19 EP=0 IP=0 FDC=0
*.SEEDPROM
*.CALIBRE ISOLATED NETS: B VSS Y A VDD
.ENDS
***************************************
.SUBCKT NOR2BX1TS
** N=25 EP=0 IP=0 FDC=0
*.SEEDPROM
*.CALIBRE ISOLATED NETS: AN B VDD Y VSS
.ENDS
***************************************
.SUBCKT XNOR2X4TS
** N=64 EP=0 IP=0 FDC=0
*.SEEDPROM
*.CALIBRE ISOLATED NETS: B A Y VSS VDD
.ENDS
***************************************
.SUBCKT XOR2X4TS
** N=74 EP=0 IP=0 FDC=0
*.SEEDPROM
*.CALIBRE ISOLATED NETS: B A Y VSS VDD
.ENDS
***************************************
.SUBCKT NAND2X2TS
** N=26 EP=0 IP=0 FDC=0
*.SEEDPROM
*.CALIBRE ISOLATED NETS: VSS A B Y VDD
.ENDS
***************************************
.SUBCKT ICV_3
** N=8 EP=0 IP=10 FDC=0
*.SEEDPROM
.ENDS
***************************************
.SUBCKT OAI2BB1X2TS
** N=37 EP=0 IP=0 FDC=0
*.SEEDPROM
*.CALIBRE ISOLATED NETS: A1N A0N Y B0 VDD VSS
.ENDS
***************************************
.SUBCKT AND2X2TS
** N=26 EP=0 IP=0 FDC=0
*.SEEDPROM
*.CALIBRE ISOLATED NETS: A B VDD VSS Y
.ENDS
***************************************
.SUBCKT OAI21XLTS
** N=23 EP=0 IP=0 FDC=0
*.SEEDPROM
*.CALIBRE ISOLATED NETS: A1 VSS A0 B0 VDD Y
.ENDS
***************************************
.SUBCKT DFFRHQX2TS
** N=94 EP=0 IP=0 FDC=0
*.SEEDPROM
*.CALIBRE ISOLATED NETS: CK D RN VDD VSS Q
.ENDS
***************************************
.SUBCKT FILL16TS
** N=36 EP=0 IP=0 FDC=0
*.SEEDPROM
*.CALIBRE ISOLATED NETS: VSS VDD
.ENDS
***************************************
.SUBCKT AO22XLTS
** N=35 EP=0 IP=0 FDC=0
*.SEEDPROM
*.CALIBRE ISOLATED NETS: B1 B0 A0 A1 VDD VSS Y
.ENDS
***************************************
.SUBCKT DFFRXLTS
** N=85 EP=0 IP=0 FDC=0
*.SEEDPROM
*.CALIBRE ISOLATED NETS: D CK RN QN VDD VSS Q
.ENDS
***************************************
.SUBCKT OAI21X1TS
** N=24 EP=0 IP=0 FDC=0
*.SEEDPROM
*.CALIBRE ISOLATED NETS: A1 VSS A0 B0 VDD Y
.ENDS
***************************************
.SUBCKT FILL32TS
** N=74 EP=0 IP=0 FDC=0
*.SEEDPROM
*.CALIBRE ISOLATED NETS: VSS VDD
.ENDS
***************************************
.SUBCKT CLKINVX2TS
** N=14 EP=0 IP=0 FDC=0
*.SEEDPROM
*.CALIBRE ISOLATED NETS: A VSS VDD Y
.ENDS
***************************************
.SUBCKT INVX6TS
** N=24 EP=0 IP=0 FDC=0
*.SEEDPROM
*.CALIBRE ISOLATED NETS: A VSS Y VDD
.ENDS
***************************************
.SUBCKT ICV_4
** N=2 EP=0 IP=4 FDC=0
*.SEEDPROM
.ENDS
***************************************
.SUBCKT OAI21X2TS
** N=45 EP=0 IP=0 FDC=0
*.SEEDPROM
*.CALIBRE ISOLATED NETS: A0 A1 VSS B0 Y VDD
.ENDS
***************************************
.SUBCKT NOR2X4TS
** N=36 EP=0 IP=0 FDC=0
*.SEEDPROM
*.CALIBRE ISOLATED NETS: B VDD A VSS Y
.ENDS
***************************************
.SUBCKT NOR2XLTS
** N=20 EP=0 IP=0 FDC=0
*.SEEDPROM
*.CALIBRE ISOLATED NETS: B VDD A Y VSS
.ENDS
***************************************
.SUBCKT AOI21X1TS
** N=24 EP=0 IP=0 FDC=0
*.SEEDPROM
*.CALIBRE ISOLATED NETS: A1 A0 VDD B0 VSS Y
.ENDS
***************************************
.SUBCKT BUFX4TS
** N=27 EP=0 IP=0 FDC=0
*.SEEDPROM
*.CALIBRE ISOLATED NETS: A Y VSS VDD
.ENDS
***************************************
.SUBCKT CLKBUFX2TS
** N=18 EP=0 IP=0 FDC=0
*.SEEDPROM
*.CALIBRE ISOLATED NETS: A VSS VDD Y
.ENDS
***************************************
.SUBCKT BUFX3TS
** N=21 EP=0 IP=0 FDC=0
*.SEEDPROM
*.CALIBRE ISOLATED NETS: A Y VSS VDD
.ENDS
***************************************
.SUBCKT ICV_5
** N=6 EP=0 IP=8 FDC=0
*.SEEDPROM
.ENDS
***************************************
.SUBCKT DFFRHQX4TS
** N=113 EP=0 IP=0 FDC=0
*.SEEDPROM
*.CALIBRE ISOLATED NETS: CK D RN Q VSS VDD
.ENDS
***************************************
.SUBCKT ICV_6
** N=8 EP=0 IP=10 FDC=0
*.SEEDPROM
.ENDS
***************************************
.SUBCKT ICV_7
** N=43 EP=0 IP=46 FDC=0
*.SEEDPROM
.ENDS
***************************************
.SUBCKT NAND2BX1TS
** N=22 EP=0 IP=0 FDC=0
*.SEEDPROM
*.CALIBRE ISOLATED NETS: AN B VSS Y VDD
.ENDS
***************************************
.SUBCKT INVX4TS
** N=19 EP=0 IP=0 FDC=0
*.SEEDPROM
*.CALIBRE ISOLATED NETS: A Y VSS VDD
.ENDS
***************************************
.SUBCKT OAI21X4TS
** N=47 EP=0 IP=0 FDC=0
*.SEEDPROM
*.CALIBRE ISOLATED NETS: A1 VSS A0 B0 Y VDD
.ENDS
***************************************
.SUBCKT INVX8TS
** N=28 EP=0 IP=0 FDC=0
*.SEEDPROM
*.CALIBRE ISOLATED NETS: A Y VDD VSS
.ENDS
***************************************
.SUBCKT XNOR2X2TS
** N=50 EP=0 IP=0 FDC=0
*.SEEDPROM
*.CALIBRE ISOLATED NETS: B A VSS VDD Y
.ENDS
***************************************
.SUBCKT NAND2X4TS
** N=30 EP=0 IP=0 FDC=0
*.SEEDPROM
*.CALIBRE ISOLATED NETS: B VSS A Y VDD
.ENDS
***************************************
.SUBCKT NAND2X6TS
** N=42 EP=0 IP=0 FDC=0
*.SEEDPROM
*.CALIBRE ISOLATED NETS: A B Y VDD VSS
.ENDS
***************************************
.SUBCKT NOR2BX4TS
** N=38 EP=0 IP=0 FDC=0
*.SEEDPROM
*.CALIBRE ISOLATED NETS: AN B VDD VSS Y
.ENDS
***************************************
.SUBCKT OR2X4TS
** N=32 EP=0 IP=0 FDC=0
*.SEEDPROM
*.CALIBRE ISOLATED NETS: A B Y VDD VSS
.ENDS
***************************************
.SUBCKT INVX3TS
** N=20 EP=0 IP=0 FDC=0
*.SEEDPROM
*.CALIBRE ISOLATED NETS: A Y VDD VSS
.ENDS
***************************************
.SUBCKT CMPR32X2TS
** N=81 EP=0 IP=0 FDC=0
*.SEEDPROM
*.CALIBRE ISOLATED NETS: B A C CO VSS VDD S
.ENDS
***************************************
.SUBCKT OAI22X2TS
** N=50 EP=0 IP=0 FDC=0
*.SEEDPROM
*.CALIBRE ISOLATED NETS: B0 VSS B1 A0 Y A1 VDD
.ENDS
***************************************
.SUBCKT DFFRX1TS
** N=85 EP=0 IP=0 FDC=0
*.SEEDPROM
*.CALIBRE ISOLATED NETS: D CK RN QN VDD VSS Q
.ENDS
***************************************
.SUBCKT ADDFHX2TS
** N=111 EP=0 IP=0 FDC=0
*.SEEDPROM
*.CALIBRE ISOLATED NETS: A B CI CO VSS VDD S
.ENDS
***************************************
.SUBCKT OA21X4TS
** N=45 EP=0 IP=0 FDC=0
*.SEEDPROM
*.CALIBRE ISOLATED NETS: A1 A0 B0 VDD Y VSS
.ENDS
***************************************
.SUBCKT OAI22X1TS
** N=32 EP=0 IP=0 FDC=0
*.SEEDPROM
*.CALIBRE ISOLATED NETS: B1 VSS B0 A0 A1 VDD Y
.ENDS
***************************************
.SUBCKT OAI22X4TS
** N=53 EP=0 IP=0 FDC=0
*.SEEDPROM
*.CALIBRE ISOLATED NETS: B0 B1 VSS A1 VDD A0 Y
.ENDS
***************************************
.SUBCKT AO21X2TS
** N=34 EP=0 IP=0 FDC=0
*.SEEDPROM
*.CALIBRE ISOLATED NETS: A1 A0 B0 VSS VDD Y
.ENDS
***************************************
.SUBCKT CLKINVX4TS
** N=21 EP=0 IP=0 FDC=0
*.SEEDPROM
*.CALIBRE ISOLATED NETS: A Y VSS VDD
.ENDS
***************************************
.SUBCKT ADDFHX4TS
** N=170 EP=0 IP=0 FDC=0
*.SEEDPROM
*.CALIBRE ISOLATED NETS: A B CI CO S VSS VDD
.ENDS
***************************************
.SUBCKT XNOR2X1TS
** N=31 EP=0 IP=0 FDC=0
*.SEEDPROM
*.CALIBRE ISOLATED NETS: B A Y VDD VSS
.ENDS
***************************************
.SUBCKT BUFX8TS
** N=39 EP=0 IP=0 FDC=0
*.SEEDPROM
*.CALIBRE ISOLATED NETS: A Y VSS VDD
.ENDS
***************************************
.SUBCKT BUFX6TS
** N=36 EP=0 IP=0 FDC=0
*.SEEDPROM
*.CALIBRE ISOLATED NETS: A VDD VSS Y
.ENDS
***************************************
.SUBCKT CLKINVX6TS
** N=27 EP=0 IP=0 FDC=0
*.SEEDPROM
*.CALIBRE ISOLATED NETS: A VSS VDD Y
.ENDS
***************************************
.SUBCKT CLKINVX1TS
** N=13 EP=0 IP=0 FDC=0
*.SEEDPROM
*.CALIBRE ISOLATED NETS: A VSS VDD Y
.ENDS
***************************************
.SUBCKT DFFRX2TS
** N=89 EP=0 IP=0 FDC=0
*.SEEDPROM
*.CALIBRE ISOLATED NETS: D CK RN VSS VDD Q QN
.ENDS
***************************************
.SUBCKT OAI2BB1X4TS
** N=40 EP=0 IP=0 FDC=0
*.SEEDPROM
*.CALIBRE ISOLATED NETS: A1N A0N B0 VSS VDD Y
.ENDS
***************************************
.SUBCKT XOR2X1TS
** N=30 EP=0 IP=0 FDC=0
*.SEEDPROM
*.CALIBRE ISOLATED NETS: A B Y VDD VSS
.ENDS
***************************************
.SUBCKT XOR2XLTS
** N=30 EP=0 IP=0 FDC=0
*.SEEDPROM
*.CALIBRE ISOLATED NETS: A B Y VSS VDD
.ENDS
***************************************
.SUBCKT NAND2BX4TS
** N=41 EP=0 IP=0 FDC=0
*.SEEDPROM
*.CALIBRE ISOLATED NETS: AN B VSS VDD Y
.ENDS
***************************************
.SUBCKT ADDHX2TS
** N=74 EP=0 IP=0 FDC=0
*.SEEDPROM
*.CALIBRE ISOLATED NETS: B S A VSS VDD CO
.ENDS
***************************************
.SUBCKT NAND2BXLTS
** N=23 EP=0 IP=0 FDC=0
*.SEEDPROM
*.CALIBRE ISOLATED NETS: AN B VSS Y VDD
.ENDS
***************************************
.SUBCKT CLKBUFX4TS
** N=31 EP=0 IP=0 FDC=0
*.SEEDPROM
*.CALIBRE ISOLATED NETS: A Y VSS VDD
.ENDS
***************************************
.SUBCKT BUFX2TS
** N=22 EP=0 IP=0 FDC=0
*.SEEDPROM
*.CALIBRE ISOLATED NETS: A Y VSS VDD
.ENDS
***************************************
.SUBCKT PE data_in[3] VSS data_in[0] VDD data_in[1] data_in[5] data_in[6] data_in[4] data_in[2] data_in[7] clk rst_n weight_out[0] weight_in[0] weight_in[1] weight_in[2] weight_in[3] weight_in[4] weight_in[5] weight_in[6]
+ weight_in[7] fire_in result[1] result[2] result[5] result[4] result[7] result[6] result[3] result[10] result[9] result[8] result[12] result[11] result[13] result[14] result[17] result[19] result[24] result[23]
+ result[21] result[25] result[20] result[27] result[26] result[28] result[29] result[30] result[31] data_out[0] data_out[1] data_out[2] data_out[3] data_out[4] data_out[5] data_out[6] data_out[7] weight_out[1] weight_out[2] weight_out[3]
+ weight_out[4] weight_out[5] weight_out[6] weight_out[7] fire_out result[0] result[15] result[16] result[18] result[22]
** N=4526 EP=70 IP=7193 FDC=10040
M0 946 870 872 VSS lpnfet w=2.4e-07 l=1.2e-07 m=1 par=1 nf=1 ngcon=1 ad=2.4e-14 as=1.308e-13 pd=4.4e-07 ps=1.52e-06 nrd=0.416667 nrs=2.27083 sa=3.7e-07 sb=1e-06 sd=0 panw1=0 panw2=3.6e-15 panw3=6e-15 panw4=6e-15 panw5=6e-15 panw6=7.2e-15 panw7=0 panw8=0 panw9=0 panw10=0 $X=8860 $Y=75510 $D=28
M1 947 37 946 VSS lpnfet w=2.4e-07 l=1.2e-07 m=1 par=1 nf=1 ngcon=1 ad=2.4e-14 as=2.4e-14 pd=4.4e-07 ps=4.4e-07 nrd=0.416667 nrs=0.416667 sa=6.9e-07 sb=6.8e-07 sd=0 panw1=0 panw2=3.6e-15 panw3=6e-15 panw4=6e-15 panw5=6e-15 panw6=7.2e-15 panw7=0 panw8=0 panw9=0 panw10=0 $X=9180 $Y=75510 $D=28
M2 VSS 32 947 VSS lpnfet w=2.4e-07 l=1.2e-07 m=1 par=1 nf=1 ngcon=1 ad=1.60062e-13 as=2.4e-14 pd=1.41231e-06 ps=4.4e-07 nrd=2.77885 nrs=0.416667 sa=1.01e-06 sb=3.6e-07 sd=0 panw1=0 panw2=3.6e-15 panw3=6e-15 panw4=6e-15 panw5=6e-15 panw6=7.2e-15 panw7=0 panw8=0 panw9=0 panw10=0 $X=9500 $Y=75510 $D=28
M3 VSS clk 870 VSS lpnfet w=3.8e-07 l=1.2e-07 m=1 par=1 nf=1 ngcon=1 ad=1.26962e-13 as=1.216e-13 pd=1.23289e-06 ps=1.4e-06 nrd=0.87924 nrs=0.842105 sa=3.2e-07 sb=6.63684e-07 sd=0 panw1=0 panw2=0 panw3=0 panw4=0 panw5=3.6e-15 panw6=1.2e-14 panw7=2.4e-14 panw8=6e-15 panw9=0 panw10=0 $X=10480 $Y=75660 $D=28
M4 VSS data_in[2] 871 VSS lpnfet w=2.2e-07 l=1.2e-07 m=1 par=1 nf=1 ngcon=1 ad=7.36459e-14 as=9.6e-14 pd=5.87869e-07 ps=1.28e-06 nrd=1.52161 nrs=1.98347 sa=3.6e-07 sb=8.8e-07 sd=0 panw1=0 panw2=0 panw3=0 panw4=0 panw5=0 panw6=8.4e-15 panw7=1.8e-14 panw8=0 panw9=0 panw10=0 $X=10520 $Y=32520 $D=28
M5 874 870 VSS VSS lpnfet w=2.4e-07 l=1.2e-07 m=1 par=1 nf=1 ngcon=1 ad=9.76e-14 as=8.01867e-14 pd=1.28e-06 ps=7.78667e-07 nrd=1.69444 nrs=1.39213 sa=8.3e-07 sb=3.6e-07 sd=0 panw1=0 panw2=0 panw3=0 panw4=0 panw5=3.6e-15 panw6=1.2e-14 panw7=1.32e-14 panw8=0 panw9=0 panw10=0 $X=10990 $Y=75660 $D=28
M6 141 871 VSS VSS lpnfet w=7.2e-07 l=1.2e-07 m=1 par=1 nf=1 ngcon=1 ad=2.304e-13 as=2.41023e-13 pd=2.08e-06 ps=1.92393e-06 nrd=0.444444 nrs=0.464936 sa=5.31111e-07 sb=3.2e-07 sd=0 panw1=0 panw2=6e-15 panw3=6e-15 panw4=6e-15 panw5=6e-15 panw6=1.2e-14 panw7=2.4e-14 panw8=2.4e-14 panw9=2.4e-15 panw10=0 $X=11080 $Y=32290 $D=28
M7 949 874 872 VSS lpnfet w=2e-07 l=1.2e-07 m=1 par=1 nf=1 ngcon=1 ad=2e-14 as=9.72e-14 pd=4e-07 ps=1.3e-06 nrd=0.5 nrs=2.43 sa=3.6e-07 sb=1.46e-06 sd=0 panw1=0 panw2=0 panw3=0 panw4=6e-15 panw5=6e-15 panw6=1.2e-14 panw7=0 panw8=0 panw9=0 panw10=0 $X=12010 $Y=75590 $D=28
M8 950 873 949 VSS lpnfet w=2e-07 l=1.2e-07 m=1 par=1 nf=1 ngcon=1 ad=2e-14 as=2e-14 pd=4e-07 ps=4e-07 nrd=0.5 nrs=0.5 sa=6.8e-07 sb=1.14e-06 sd=0 panw1=0 panw2=0 panw3=0 panw4=6e-15 panw5=6e-15 panw6=1.2e-14 panw7=0 panw8=0 panw9=0 panw10=0 $X=12330 $Y=75590 $D=28
M9 VSS 32 950 VSS lpnfet w=2e-07 l=1.2e-07 m=1 par=1 nf=1 ngcon=1 ad=8.8e-14 as=2e-14 pd=9.77778e-07 ps=4e-07 nrd=2.2 nrs=0.5 sa=1e-06 sb=8.2e-07 sd=0 panw1=0 panw2=0 panw3=0 panw4=6e-15 panw5=6e-15 panw6=1.2e-14 panw7=0 panw8=0 panw9=0 panw10=0 $X=12650 $Y=75590 $D=28
M10 873 872 VSS VSS lpnfet w=3.4e-07 l=1.2e-07 m=1 par=1 nf=1 ngcon=1 ad=1.168e-13 as=1.496e-13 pd=1.08e-06 ps=1.66222e-06 nrd=1.01038 nrs=1.29412 sa=9.65882e-07 sb=4.25882e-07 sd=0 panw1=0 panw2=0 panw3=0 panw4=6e-15 panw5=6e-15 panw6=1.2e-14 panw7=1.68e-14 panw8=0 panw9=0 panw10=0 $X=13110 $Y=75590 $D=28
M11 875 874 873 VSS lpnfet w=3.4e-07 l=1.2e-07 m=1 par=1 nf=1 ngcon=1 ad=1.48844e-13 as=1.168e-13 pd=1.42296e-06 ps=1.08e-06 nrd=1.28758 nrs=1.01038 sa=4.14118e-07 sb=3.6e-07 sd=0 panw1=0 panw2=0 panw3=0 panw4=0 panw5=0 panw6=0 panw7=1.2e-14 panw8=2.4e-14 panw9=4.8e-15 panw10=0 $X=13670 $Y=75890 $D=28
M12 952 870 875 VSS lpnfet w=2e-07 l=1.2e-07 m=1 par=1 nf=1 ngcon=1 ad=2e-14 as=8.75556e-14 pd=4e-07 ps=8.37037e-07 nrd=0.5 nrs=2.18889 sa=3.6e-07 sb=1.46e-06 sd=0 panw1=0 panw2=0 panw3=2.4e-15 panw4=6e-15 panw5=6e-15 panw6=9.6e-15 panw7=0 panw8=0 panw9=0 panw10=0 $X=14230 $Y=75570 $D=28
M13 VSS 878 952 VSS lpnfet w=2e-07 l=1.2e-07 m=1 par=1 nf=1 ngcon=1 ad=5.37333e-14 as=2e-14 pd=4.02222e-07 ps=4e-07 nrd=1.34333 nrs=0.5 sa=6.8e-07 sb=1.14e-06 sd=0 panw1=0 panw2=0 panw3=2.4e-15 panw4=6e-15 panw5=6e-15 panw6=9.6e-15 panw7=0 panw8=0 panw9=0 panw10=0 $X=14550 $Y=75570 $D=28
M14 953 32 VSS VSS lpnfet w=9.2e-07 l=1.2e-07 m=1 par=1 nf=1 ngcon=1 ad=9.2e-14 as=2.47173e-13 pd=1.12e-06 ps=1.85022e-06 nrd=0.108696 nrs=0.292029 sa=5.64565e-07 sb=6.6e-07 sd=0 panw1=0 panw2=6e-15 panw3=6e-15 panw4=6e-15 panw5=6e-15 panw6=1.2e-14 panw7=2.4e-14 panw8=2.4e-14 panw9=2.64e-14 panw10=0 $X=15030 $Y=75490 $D=28
M15 878 875 953 VSS lpnfet w=9.2e-07 l=1.2e-07 m=1 par=1 nf=1 ngcon=1 ad=3.128e-13 as=9.2e-14 pd=2.52e-06 ps=1.12e-06 nrd=0.369565 nrs=0.108696 sa=8.84565e-07 sb=3.4e-07 sd=0 panw1=0 panw2=6e-15 panw3=6e-15 panw4=6e-15 panw5=6e-15 panw6=1.2e-14 panw7=2.4e-14 panw8=2.4e-14 panw9=2.64e-14 panw10=0 $X=15350 $Y=75490 $D=28
M16 VSS 878 876 VSS lpnfet w=4.4e-07 l=1.2e-07 m=1 par=1 nf=1 ngcon=1 ad=1.06635e-13 as=1.408e-13 pd=8.54118e-07 ps=1.52e-06 nrd=0.550802 nrs=0.727273 sa=3.2e-07 sb=2e-06 sd=0 panw1=0 panw2=0 panw3=0 panw4=0 panw5=0 panw6=0 panw7=2.4e-15 panw8=2.4e-14 panw9=2.64e-14 panw10=0 $X=16310 $Y=75970 $D=28
M17 877 876 VSS VSS lpnfet w=9.2e-07 l=1.2e-07 m=1 par=1 nf=1 ngcon=1 ad=1.656e-13 as=2.22965e-13 pd=1.28e-06 ps=1.78588e-06 nrd=0.195652 nrs=0.263427 sa=5.68696e-07 sb=1.76e-06 sd=0 panw1=0 panw2=6e-15 panw3=6e-15 panw4=6e-15 panw5=6e-15 panw6=1.2e-14 panw7=2.4e-14 panw8=2.4e-14 panw9=2.64e-14 panw10=0 $X=16830 $Y=75490 $D=28
M18 VSS 876 877 VSS lpnfet w=9.2e-07 l=1.2e-07 m=1 par=1 nf=1 ngcon=1 ad=1.656e-13 as=1.656e-13 pd=1.28e-06 ps=1.28e-06 nrd=0.195652 nrs=0.195652 sa=1.0487e-06 sb=1.28e-06 sd=0 panw1=0 panw2=6e-15 panw3=6e-15 panw4=6e-15 panw5=6e-15 panw6=1.2e-14 panw7=2.4e-14 panw8=2.4e-14 panw9=2.64e-14 panw10=0 $X=17310 $Y=75490 $D=28
M19 239 878 VSS VSS lpnfet w=9.2e-07 l=1.2e-07 m=1 par=1 nf=1 ngcon=1 ad=1.656e-13 as=1.656e-13 pd=1.28e-06 ps=1.28e-06 nrd=0.195652 nrs=0.195652 sa=1.5287e-06 sb=8e-07 sd=0 panw1=0 panw2=6e-15 panw3=6e-15 panw4=6e-15 panw5=6e-15 panw6=1.2e-14 panw7=2.4e-14 panw8=2.4e-14 panw9=2.64e-14 panw10=0 $X=17790 $Y=75490 $D=28
M20 VSS 878 239 VSS lpnfet w=9.2e-07 l=1.2e-07 m=1 par=1 nf=1 ngcon=1 ad=2.944e-13 as=1.656e-13 pd=2.48e-06 ps=1.28e-06 nrd=0.347826 nrs=0.195652 sa=1.87478e-06 sb=3.2e-07 sd=0 panw1=0 panw2=6e-15 panw3=6e-15 panw4=6e-15 panw5=6e-15 panw6=1.2e-14 panw7=2.4e-14 panw8=2.4e-14 panw9=2.64e-14 panw10=0 $X=18270 $Y=75490 $D=28
M21 VSS clk 879 VSS lpnfet w=2.8e-07 l=1.2e-07 m=1 par=1 nf=1 ngcon=1 ad=1.15242e-13 as=1.064e-13 pd=1.04632e-06 ps=1.32e-06 nrd=1.46992 nrs=1.35714 sa=3.6e-07 sb=7.6e-07 sd=0 panw1=0 panw2=0 panw3=0 panw4=0 panw5=0 panw6=1.08e-14 panw7=2.28e-14 panw8=0 panw9=0 panw10=0 $X=20160 $Y=18100 $D=28
M22 882 clk VSS VSS lpnfet w=2e-07 l=1.2e-07 m=1 par=1 nf=1 ngcon=1 ad=9.44e-14 as=8.23158e-14 pd=1.28e-06 ps=7.47368e-07 nrd=2.36 nrs=2.05789 sa=9.2e-07 sb=3.6e-07 sd=0 panw1=0 panw2=0 panw3=0 panw4=0 panw5=0 panw6=1.08e-14 panw7=1.32e-14 panw8=0 panw9=0 panw10=0 $X=20720 $Y=18100 $D=28
M23 880 95 VSS VSS lpnfet w=2e-07 l=1.2e-07 m=1 par=1 nf=1 ngcon=1 ad=9.44e-14 as=1.04667e-13 pd=1.28e-06 ps=1e-06 nrd=2.36 nrs=2.61667 sa=3.6e-07 sb=3.6e-07 sd=0 panw1=0 panw2=0 panw3=0 panw4=0 panw5=0 panw6=0 panw7=1.2e-15 panw8=2.28e-14 panw9=0 panw10=0 $X=21760 $Y=18240 $D=28
M24 VSS 879 884 VSS lpnfet w=3e-07 l=1.2e-07 m=1 par=1 nf=1 ngcon=1 ad=9.17059e-14 as=1.08e-13 pd=1.06471e-06 ps=1.32e-06 nrd=1.01895 nrs=1.2 sa=3.6e-07 sb=1.595e-06 sd=0 panw1=0 panw2=4.8e-15 panw3=6e-15 panw4=6e-15 panw5=6e-15 panw6=1.2e-14 panw7=1.2e-15 panw8=0 panw9=0 panw10=0 $X=22800 $Y=17760 $D=28
M25 956 882 VSS VSS lpnfet w=4.4e-07 l=1.2e-07 m=1 par=1 nf=1 ngcon=1 ad=4.4e-14 as=1.34502e-13 pd=6.4e-07 ps=1.56157e-06 nrd=0.227273 nrs=0.694742 sa=6.55909e-07 sb=1.25409e-06 sd=0 panw1=0 panw2=4.8e-15 panw3=6e-15 panw4=6e-15 panw5=6e-15 panw6=1.2e-14 panw7=1.8e-14 panw8=0 panw9=0 panw10=0 $X=23290 $Y=17760 $D=28
M26 881 880 956 VSS lpnfet w=4.4e-07 l=1.2e-07 m=1 par=1 nf=1 ngcon=1 ad=1.14812e-13 as=4.4e-14 pd=1.2375e-06 ps=6.4e-07 nrd=0.59304 nrs=0.227273 sa=9.75909e-07 sb=1.07955e-06 sd=0 panw1=0 panw2=4.8e-15 panw3=6e-15 panw4=6e-15 panw5=6e-15 panw6=1.2e-14 panw7=1.8e-14 panw8=0 panw9=0 panw10=0 $X=23610 $Y=17760 $D=28
M27 958 884 881 VSS lpnfet w=2e-07 l=1.2e-07 m=1 par=1 nf=1 ngcon=1 ad=2e-14 as=5.21875e-14 pd=4e-07 ps=5.625e-07 nrd=0.5 nrs=1.30469 sa=1.5975e-06 sb=1.94e-06 sd=0 panw1=0 panw2=0 panw3=0 panw4=0 panw5=4.8e-15 panw6=1.2e-14 panw7=7.2e-15 panw8=0 panw9=0 panw10=0 $X=24190 $Y=17910 $D=28
M28 VSS 883 958 VSS lpnfet w=2e-07 l=1.2e-07 m=1 par=1 nf=1 ngcon=1 ad=5.3434e-14 as=2e-14 pd=6.07547e-07 ps=4e-07 nrd=1.33585 nrs=0.5 sa=1.865e-06 sb=1.78e-06 sd=0 panw1=0 panw2=0 panw3=0 panw4=0 panw5=4.8e-15 panw6=1.2e-14 panw7=7.2e-15 panw8=0 panw9=0 panw10=0 $X=24510 $Y=17910 $D=28
M29 959 68 VSS VSS lpnfet w=5.8e-07 l=1.2e-07 m=1 par=1 nf=1 ngcon=1 ad=6.67e-14 as=1.54958e-13 pd=8.1e-07 ps=1.76189e-06 nrd=0.198276 nrs=0.460638 sa=8.38276e-07 sb=1.36241e-06 sd=0 panw1=0 panw2=0 panw3=0 panw4=0 panw5=4.8e-15 panw6=1.2e-14 panw7=2.4e-14 panw8=2.4e-14 panw9=4.8e-15 panw10=0 $X=24950 $Y=17910 $D=28
M30 883 881 959 VSS lpnfet w=5.8e-07 l=1.2e-07 m=1 par=1 nf=1 ngcon=1 ad=1.29132e-13 as=6.67e-14 pd=1.12717e-06 ps=8.1e-07 nrd=0.383865 nrs=0.198276 sa=1.07621e-06 sb=1.1331e-06 sd=0 panw1=0 panw2=0 panw3=0 panw4=0 panw5=4.8e-15 panw6=1.2e-14 panw7=2.4e-14 panw8=2.4e-14 panw9=4.8e-15 panw10=0 $X=25300 $Y=17910 $D=28
M31 887 884 883 VSS lpnfet w=4.8e-07 l=1.2e-07 m=1 par=1 nf=1 ngcon=1 ad=1.11247e-13 as=1.06868e-13 pd=1.24235e-06 ps=9.3283e-07 nrd=0.482843 nrs=0.463836 sa=1.51e-06 sb=8.03333e-07 sd=0 panw1=0 panw2=3.6e-15 panw3=6e-15 panw4=6e-15 panw5=6e-15 panw6=1.2e-14 panw7=2.4e-14 panw8=0 panw9=0 panw10=0 $X=25870 $Y=17910 $D=28
M32 960 882 887 VSS lpnfet w=2e-07 l=1.2e-07 m=1 par=1 nf=1 ngcon=1 ad=2e-14 as=4.63529e-14 pd=4e-07 ps=5.17647e-07 nrd=0.5 nrs=1.15882 sa=1.84e-06 sb=1.02e-06 sd=0 panw1=0 panw2=0 panw3=0 panw4=3.6e-15 panw5=6e-15 panw6=1.2e-14 panw7=2.4e-15 panw8=0 panw9=0 panw10=0 $X=26390 $Y=18010 $D=28
M33 961 68 960 VSS lpnfet w=2e-07 l=1.2e-07 m=1 par=1 nf=1 ngcon=1 ad=2e-14 as=2e-14 pd=4e-07 ps=4e-07 nrd=0.5 nrs=0.5 sa=2e-06 sb=7e-07 sd=0 panw1=0 panw2=0 panw3=0 panw4=3.6e-15 panw5=6e-15 panw6=1.2e-14 panw7=2.4e-15 panw8=0 panw9=0 panw10=0 $X=26710 $Y=18010 $D=28
M34 VSS 886 961 VSS lpnfet w=2e-07 l=1.2e-07 m=1 par=1 nf=1 ngcon=1 ad=1.33167e-13 as=2e-14 pd=1.20833e-06 ps=4e-07 nrd=3.32917 nrs=0.5 sa=2e-06 sb=3.8e-07 sd=0 panw1=0 panw2=0 panw3=0 panw4=3.6e-15 panw5=6e-15 panw6=1.2e-14 panw7=2.4e-15 panw8=0 panw9=0 panw10=0 $X=27030 $Y=18010 $D=28
M35 VSS 887 886 VSS lpnfet w=2e-07 l=1.2e-07 m=1 par=1 nf=1 ngcon=1 ad=6.91064e-14 as=9.44e-14 pd=6.93617e-07 ps=1.28e-06 nrd=1.72766 nrs=2.36 sa=3.6e-07 sb=7.6e-07 sd=0 panw1=0 panw2=6e-15 panw3=6e-15 panw4=6e-15 panw5=6e-15 panw6=0 panw7=0 panw8=0 panw9=0 panw10=0 $X=28630 $Y=17890 $D=28
M36 100 887 VSS VSS lpnfet w=4.6e-07 l=1.2e-07 m=1 par=1 nf=1 ngcon=1 ad=1.472e-13 as=1.58945e-13 pd=1.56e-06 ps=1.59532e-06 nrd=0.695652 nrs=0.751156 sa=4.83478e-07 sb=3.2e-07 sd=0 panw1=0 panw2=6e-15 panw3=6e-15 panw4=6e-15 panw5=6e-15 panw6=1.2e-14 panw7=1.92e-14 panw8=0 panw9=0 panw10=0 $X=29070 $Y=17890 $D=28
M37 963 888 VSS VSS lpnfet w=9.2e-07 l=1.2e-07 m=1 par=1 nf=1 ngcon=1 ad=9.2e-14 as=2.944e-13 pd=1.12e-06 ps=2.48e-06 nrd=0.108696 nrs=0.347826 sa=3.2e-07 sb=1.80783e-06 sd=0 panw1=0 panw2=6e-15 panw3=6e-15 panw4=6e-15 panw5=6e-15 panw6=1.2e-14 panw7=2.4e-14 panw8=2.4e-14 panw9=2.64e-14 panw10=0 $X=30490 $Y=69990 $D=28
M38 889 105 963 VSS lpnfet w=9.2e-07 l=1.2e-07 m=1 par=1 nf=1 ngcon=1 ad=1.656e-13 as=9.2e-14 pd=1.28e-06 ps=1.12e-06 nrd=0.195652 nrs=0.108696 sa=6.4e-07 sb=1.71739e-06 sd=0 panw1=0 panw2=6e-15 panw3=6e-15 panw4=6e-15 panw5=6e-15 panw6=1.2e-14 panw7=2.4e-14 panw8=2.4e-14 panw9=2.64e-14 panw10=0 $X=30810 $Y=69990 $D=28
M39 964 105 889 VSS lpnfet w=9.2e-07 l=1.2e-07 m=1 par=1 nf=1 ngcon=1 ad=9.2e-14 as=1.656e-13 pd=1.12e-06 ps=1.28e-06 nrd=0.108696 nrs=0.195652 sa=1.12e-06 sb=1.58174e-06 sd=0 panw1=0 panw2=6e-15 panw3=6e-15 panw4=6e-15 panw5=6e-15 panw6=1.2e-14 panw7=2.4e-14 panw8=2.4e-14 panw9=2.64e-14 panw10=0 $X=31290 $Y=69990 $D=28
M40 VSS 888 964 VSS lpnfet w=9.2e-07 l=1.2e-07 m=1 par=1 nf=1 ngcon=1 ad=2.45489e-13 as=9.2e-14 pd=1.72354e-06 ps=1.12e-06 nrd=0.290039 nrs=0.108696 sa=1.44e-06 sb=1.4913e-06 sd=0 panw1=0 panw2=6e-15 panw3=6e-15 panw4=6e-15 panw5=6e-15 panw6=1.2e-14 panw7=2.4e-14 panw8=2.4e-14 panw9=2.64e-14 panw10=0 $X=31610 $Y=69990 $D=28
M41 402 889 VSS VSS lpnfet w=6.6e-07 l=1.2e-07 m=1 par=1 nf=1 ngcon=1 ad=1.20972e-13 as=1.76111e-13 pd=1.06937e-06 ps=1.23646e-06 nrd=0.277714 nrs=0.404296 sa=2e-06 sb=1.76e-06 sd=0 panw1=0 panw2=6e-15 panw3=6e-15 panw4=6e-15 panw5=6e-15 panw6=1.2e-14 panw7=2.4e-14 panw8=1.92e-14 panw9=0 panw10=0 $X=32290 $Y=70250 $D=28
M42 VSS 889 402 VSS lpnfet w=9.2e-07 l=1.2e-07 m=1 par=1 nf=1 ngcon=1 ad=1.656e-13 as=1.68628e-13 pd=1.28e-06 ps=1.49063e-06 nrd=0.195652 nrs=0.199229 sa=1.4913e-06 sb=1.28e-06 sd=0 panw1=0 panw2=6e-15 panw3=6e-15 panw4=6e-15 panw5=6e-15 panw6=1.2e-14 panw7=2.4e-14 panw8=2.4e-14 panw9=2.64e-14 panw10=0 $X=32770 $Y=69990 $D=28
M43 402 889 VSS VSS lpnfet w=9.2e-07 l=1.2e-07 m=1 par=1 nf=1 ngcon=1 ad=1.656e-13 as=1.656e-13 pd=1.28e-06 ps=1.28e-06 nrd=0.195652 nrs=0.195652 sa=1.62696e-06 sb=8e-07 sd=0 panw1=0 panw2=6e-15 panw3=6e-15 panw4=6e-15 panw5=6e-15 panw6=1.2e-14 panw7=2.4e-14 panw8=2.4e-14 panw9=2.64e-14 panw10=0 $X=33250 $Y=69990 $D=28
M44 VSS 889 402 VSS lpnfet w=9.2e-07 l=1.2e-07 m=1 par=1 nf=1 ngcon=1 ad=2.944e-13 as=1.656e-13 pd=2.48e-06 ps=1.28e-06 nrd=0.347826 nrs=0.195652 sa=1.76261e-06 sb=3.2e-07 sd=0 panw1=0 panw2=6e-15 panw3=6e-15 panw4=6e-15 panw5=6e-15 panw6=1.2e-14 panw7=2.4e-14 panw8=2.4e-14 panw9=2.64e-14 panw10=0 $X=33730 $Y=69990 $D=28
M45 965 890 VSS VSS lpnfet w=6.6e-07 l=1.2e-07 m=1 par=1 nf=1 ngcon=1 ad=6.6e-14 as=2.45464e-13 pd=8.6e-07 ps=1.99404e-06 nrd=0.151515 nrs=0.563507 sa=3.6e-07 sb=1.79121e-06 sd=0 panw1=0 panw2=0 panw3=0 panw4=2.4e-15 panw5=6e-15 panw6=1.2e-14 panw7=2.4e-14 panw8=2.4e-14 panw9=1.08e-14 panw10=0 $X=36480 $Y=68420 $D=28
M46 966 807 965 VSS lpnfet w=6.6e-07 l=1.2e-07 m=1 par=1 nf=1 ngcon=1 ad=6.6e-14 as=6.6e-14 pd=8.6e-07 ps=8.6e-07 nrd=0.151515 nrs=0.151515 sa=6.8e-07 sb=1.55152e-06 sd=0 panw1=0 panw2=0 panw3=0 panw4=2.4e-15 panw5=6e-15 panw6=1.2e-14 panw7=2.4e-14 panw8=2.4e-14 panw9=1.08e-14 panw10=0 $X=36800 $Y=68420 $D=28
M47 190 161 966 VSS lpnfet w=6.6e-07 l=1.2e-07 m=1 par=1 nf=1 ngcon=1 ad=1.332e-13 as=6.6e-14 pd=1.17e-06 ps=8.6e-07 nrd=0.305785 nrs=0.151515 sa=1e-06 sb=1.23152e-06 sd=0 panw1=0 panw2=0 panw3=0 panw4=2.4e-15 panw5=6e-15 panw6=1.2e-14 panw7=2.4e-14 panw8=2.4e-14 panw9=1.08e-14 panw10=0 $X=37120 $Y=68420 $D=28
M48 967 161 190 VSS lpnfet w=6.6e-07 l=1.2e-07 m=1 par=1 nf=1 ngcon=1 ad=6.6e-14 as=1.332e-13 pd=8.6e-07 ps=1.17e-06 nrd=0.151515 nrs=0.305785 sa=1.24394e-06 sb=9.6e-07 sd=0 panw1=0 panw2=6e-15 panw3=6e-15 panw4=6e-15 panw5=6e-15 panw6=1.2e-14 panw7=2.4e-14 panw8=1.92e-14 panw9=0 panw10=0 $X=37620 $Y=68290 $D=28
M49 968 807 967 VSS lpnfet w=6.6e-07 l=1.2e-07 m=1 par=1 nf=1 ngcon=1 ad=6.6e-14 as=6.6e-14 pd=8.6e-07 ps=8.6e-07 nrd=0.151515 nrs=0.151515 sa=1.56394e-06 sb=6.4e-07 sd=0 panw1=0 panw2=6e-15 panw3=6e-15 panw4=6e-15 panw5=6e-15 panw6=1.2e-14 panw7=2.4e-14 panw8=1.92e-14 panw9=0 panw10=0 $X=37940 $Y=68290 $D=28
M50 VSS 890 968 VSS lpnfet w=6.6e-07 l=1.2e-07 m=1 par=1 nf=1 ngcon=1 ad=2.112e-13 as=6.6e-14 pd=1.96e-06 ps=8.6e-07 nrd=0.484848 nrs=0.151515 sa=1.77152e-06 sb=3.2e-07 sd=0 panw1=0 panw2=6e-15 panw3=6e-15 panw4=6e-15 panw5=6e-15 panw6=1.2e-14 panw7=2.4e-14 panw8=1.92e-14 panw9=0 panw10=0 $X=38260 $Y=68290 $D=28
M51 969 147 891 VSS lpnfet w=2.8e-07 l=1.2e-07 m=1 par=1 nf=1 ngcon=1 ad=2.8e-14 as=8.96e-14 pd=4.8e-07 ps=1.2e-06 nrd=0.357143 nrs=1.14286 sa=3.2e-07 sb=1.52e-06 sd=0 panw1=0 panw2=0 panw3=4.8e-15 panw4=6e-15 panw5=6e-15 panw6=1.2e-14 panw7=4.8e-15 panw8=0 panw9=0 panw10=0 $X=38960 $Y=17950 $D=28
M52 VSS 143 969 VSS lpnfet w=2.8e-07 l=1.2e-07 m=1 par=1 nf=1 ngcon=1 ad=9.33655e-14 as=2.8e-14 pd=7.57931e-07 ps=4.8e-07 nrd=1.19089 nrs=0.357143 sa=6.4e-07 sb=1.2e-06 sd=0 panw1=0 panw2=0 panw3=4.8e-15 panw4=6e-15 panw5=6e-15 panw6=1.2e-14 panw7=4.8e-15 panw8=0 panw9=0 panw10=0 $X=39280 $Y=17950 $D=28
M53 970 154 VSS VSS lpnfet w=6e-07 l=1.2e-07 m=1 par=1 nf=1 ngcon=1 ad=6e-14 as=2.00069e-13 pd=8e-07 ps=1.62414e-06 nrd=0.166667 nrs=0.555747 sa=7.52e-07 sb=6.4e-07 sd=0 panw1=0 panw2=0 panw3=4.8e-15 panw4=6e-15 panw5=6e-15 panw6=1.2e-14 panw7=2.4e-14 panw8=1.92e-14 panw9=0 panw10=0 $X=39840 $Y=17950 $D=28