$ Spice netlist generated by v2lvs
$ v2018.1_36.27    Tue Apr 3 12:53:59 PDT 2018
.INCLUDE "/courses/ee6321/share/ibm13rflpvt/lvs_netlist/ibm13rflpvt.cdl" 
*.BUSDELIMITER [ 

.SUBCKT PE clk rst_n fire_in weight_in[7] weight_in[6] weight_in[5] 
+ weight_in[4] weight_in[3] weight_in[2] weight_in[1] weight_in[0] data_in[7] 
+ data_in[6] data_in[5] data_in[4] data_in[3] data_in[2] data_in[1] data_in[0] 
+ fire_out weight_out[7] weight_out[6] weight_out[5] weight_out[4] 
+ weight_out[3] weight_out[2] weight_out[1] weight_out[0] data_out[7] 
+ data_out[6] data_out[5] data_out[4] data_out[3] data_out[2] data_out[1] 
+ data_out[0] result[31] result[30] result[29] result[28] result[27] result[26] 
+ result[25] result[24] result[23] result[22] result[21] result[20] result[19] 
+ result[18] result[17] result[16] result[15] result[14] result[13] result[12] 
+ result[11] result[10] result[9] result[8] result[7] result[6] result[5] 
+ result[4] result[3] result[2] result[1] result[0] 
XFE_PSC287_n222 FE_PSN287_n222 n222 BUFX6TS 
XFE_PSC286_n544 FE_PSN286_n544 n544 CLKBUFX2TS 
XFE_PSC285_n565 FE_PSN285_n565 n565 CLKBUFX2TS 
XFE_PSC284_FE_OFN25_data_in_6 FE_PSN284_FE_OFN25_data_in_6 FE_OFN25_data_in_6 
+ BUFX4TS 
XFE_PSC283_n110 FE_PSN283_n110 n110 CLKBUFX2TS 
XFE_PSC281_n205 FE_PSN281_n205 n205 BUFX6TS 
XFE_PSC280_n555 FE_PSN280_n555 n555 CLKBUFX2TS 
XFE_PDC279_weight_in_3 FE_PDN279_weight_in_3 weight_in[3] BUFX2TS 
XFE_PDC278_data_in_6 FE_PDN278_data_in_6 data_in[6] CLKBUFX2TS 
XFE_OCPC278_FE_OFN30_data_in_3 FE_OCPN178_FE_OFN30_data_in_3 FE_OFN30_data_in_3 
+ BUFX4TS 
XFE_RC_218_0 n228 FE_OFN159_n FE_OFN246_data_in_5 XNOR2X2TS 
XFE_RC_217_0 n207 FE_OFN33_data_in_2 FE_OFN166_n XNOR2X2TS 
XFE_RC_216_0 n398 FE_OFN163_n294 n396 n395 AOI21X4TS 
XFE_RC_215_0 FE_RN_105_0 n356 INVX2TS 
XFE_RC_214_0 n358 n4701 n473 FE_RN_105_0 OAI2BB1X2TS 
XFE_RC_213_0 n5401 n536 n553 n535 AOI21X2TS 
XFE_RC_212_0 n241 FE_OFN130_n156 FE_OFN138_n226 FE_RN_84_0 OAI2BB1X2TS 
XFE_RC_211_0 FE_RN_2_0 n127 n128 XOR2X4TS 
XFE_RC_210_0 FE_RN_9 FE_OCPN177_weight_in_3 FE_OFN9_weight_in_4 XNOR2X4TS 
XFE_RC_209_0 n416 n415 n414 n413 OAI21X2TS 
XFE_RC_208_0 n5601 n567 n563 FE_PSN285_n565 OAI21X1TS 
XFE_RC_207_0 FE_RN_104_0 n359 FE_OCPN169_n294 n358 AOI21X4TS 
XFE_RC_206_0 n364 FE_RN_104_0 n93 XOR2X4TS 
XFE_RC_205_0 FE_RN_103_0 n150 n151 NAND2X1TS 
XFE_RC_204_0 n185 FE_RN_24_0 FE_RN_103_0 NAND2X4TS 
XU413_dup FE_RN_12 FE_OCPN177_weight_in_3 FE_OFN30_data_in_3 XNOR2X2TS 
XFE_RC_124_0_dup FE_RN_11 FE_OFN17_weight_in_1 FE_OFN149_weight_in_0 NAND2X4TS 
XFE_RC_203_0 n130 FE_OFN247_weight_in_5 FE_OFN35_data_in_1 XNOR2X4TS 
XFE_RC_202_0 FE_RN_102_0 n161 CLKINVX2TS 
XFE_RC_201_0 n596 n160 FE_RN_102_0 NAND2BX4TS 
XFE_RC_200_0 FE_RN_101_0 FE_RN_63_0 FE_OFN121_FE_DBTN1_fire_in NOR2BX1TS 
XFE_RC_199_0 FE_RN_86_0 FE_RN_101_0 FE_RN_85_0 NOR2BX2TS 
XFE_RC_198_0 n131 FE_RN_100_0 INVX2TS 
XFE_RC_197_0 FE_RN_100_0 FE_OFN39_data_in_0 FE_OFN259_weight_in_5 XOR2X4TS 
XFE_RC_196_0 FE_RN_98_0 FE_OFN9_weight_in_4 FE_OFN12_weight_in_3 NAND2BX4TS 
XFE_RC_195_0 FE_RN_99_0 FE_OFN12_weight_in_3 FE_OFN9_weight_in_4 NAND2BX4TS 
XFE_RC_194_0 FE_RN_37_0 FE_RN_99_0 FE_RN_98_0 NAND2X6TS 
XFE_RC_192_0 n251 FE_OFN159_n FE_OFN242_data_in_7 XNOR2X2TS 
XFE_OFC191_data_in_6_dup FE_RN_10 FE_PDN278_data_in_6 CLKBUFX2TS 
XFE_OCPC271_n255 FE_OCPN271_n255 n255 BUFX6TS 
XFE_RC_191_0 FE_RN_97_0 n301 INVX3TS 
XFE_RC_190_0 FE_RN_74_0 FE_RN_97_0 n300 NAND2X4TS 
XFE_RC_189_0 n158 FE_OFN258_FE_DBTN0_n34 FE_OFN157_data_in_0 
+ FE_OFN149_weight_in_0 n157 OAI22X2TS 
XFE_RC_188_0 n254 FE_OFN27_data_in_5 FE_OFN142_weight_in_7 XNOR2X4TS 
XFE_OCPC277_weight_in_3 FE_OCPN177_weight_in_3 FE_OFN251_weight_in_3 INVX8TS 
XFE_OCPC276_weight_in_3 FE_OFN11_weight_in_3 FE_OFN251_weight_in_3 INVX8TS 
XFE_OCPC274_weight_in_3 FE_OFN251_weight_in_3 FE_OFN10_weight_in_3 INVX6TS 
XFE_OCPC273_weight_in_3 FE_OFN236_weight_in_3 FE_OFN10_weight_in_3 CLKINVX4TS 
XFE_OCPC272_weight_in_3 FE_OFN12_weight_in_3 FE_OFN10_weight_in_3 BUFX6TS 
XFE_OCPC271_weight_in_3 FE_OFN10_weight_in_3 FE_PDN279_weight_in_3 BUFX8TS 
XFE_RC_187_0 n144 n147 FE_OFN258_FE_DBTN0_n34 n132 FE_OFN149_weight_in_0 
+ OAI22X1TS 
XFE_RC_184_0 n206 FE_OFN11_weight_in_3 FE_OFN25_data_in_6 XNOR2X2TS 
XFE_RC_183_0 n98 FE_OFN236_weight_in_3 FE_OFN15_weight_in_2 XNOR2X4TS 
XFE_RC_182_0 n168 FE_OFN17_weight_in_1 FE_OFN261_data_in_2 XNOR2X4TS 
XFE_RC_181_0 n276 n268 FE_OFN141_n279 n277 FE_OFN129_n108 OAI22X1TS 
XFE_RC_180_0 n222 n74 n204 FE_OFN123_n102 n228 OAI22X2TS 
XFE_RC_179_0 n468 FE_OFN92_n294 n465 n464 AOI21X4TS 
XFE_RC_178_0 FE_RN_94_0 FE_OFN111_FE_DBTN1_fire_in FE_RN_41_0 NAND2BX1TS 
XFE_RC_177_0 FE_RN_95_0 FE_RN_94_0 FE_RN_45_0 FE_RN_43_0 NAND3BX2TS 
XFE_RC_176_0 N60 FE_RN_47_0 FE_RN_95_0 NOR2BX2TS 
XFE_RC_175_0 FE_RN_91_0 FE_OFN131_n156 INVX4TS 
XFE_RC_174_0 FE_RN_92_0 FE_RN_12 INVX2TS 
XFE_RC_173_0 FE_RN_93_0 FE_RN_92_0 FE_RN_91_0 NAND2X2TS 
XFE_RC_172_0 n146 FE_OFN139_n226 n143 FE_RN_93_0 OAI21X4TS 
XFE_RC_171_0 n167 FE_OFN17_weight_in_1 FE_OCPN178_FE_OFN30_data_in_3 XNOR2X4TS 
XFE_RC_170_0 n157 FE_OFN19_weight_in_1 FE_OFN35_data_in_1 XNOR2X4TS 
XFE_RC_169_0 n456 FE_OFN92_n294 n453 n452 AOI21X4TS 
XFE_RC_168_0 FE_RN_88_0 n88 FE_OFN112_FE_DBTN1_fire_in NOR2BX1TS 
XFE_RC_167_0 FE_RN_89_0 n445 FE_RN_88_0 NAND2X2TS 
XFE_RC_166_0 FE_RN_90_0 FE_OFN112_FE_DBTN1_fire_in n88 OR2X2TS 
XFE_RC_165_0 N58 n445 FE_RN_90_0 FE_RN_89_0 OAI21X2TS 
XFE_RC_164_0 FE_RN_85_0 FE_RN_64_0 INVX2TS 
XFE_RC_162_0 FE_RN_87_0 FE_RN_66_0 FE_RN_86_0 NAND2X2TS 
XFE_RC_161_0 N66 FE_RN_68_0 FE_RN_87_0 NOR2BX2TS 
XFE_RC_160_0 n475 FE_OCPN169_n294 n471 n4701 AOI21X4TS 
XFE_RC_159_0 n156 FE_OFN15_weight_in_2 FE_OFN16_weight_in_1 XNOR2X4TS 
XFE_RC_158_0 n288 n287 n532 n286 OAI21X4TS 
XFE_RC_157_0 FE_RN_84_0 n224 INVX2TS 
XFE_RC_155_0 n269 n268 FE_OFN129_n108 FE_OFN141_n279 n254 OAI22X2TS 
XFE_RC_154_0 FE_RN_83_0 FE_RN_37_0 CLKINVX6TS 
XFE_RC_153_0 n75 FE_RN_83_0 n101 NAND2X6TS 
XFE_RC_152_0 FE_RN_62_0 n119 n122 XOR2X4TS 
XFE_RC_151_0 FE_RN_77_0 n273 n272 XNOR2X4TS 
XFE_RC_150_0 n101 FE_RN_82_0 INVX8TS 
XFE_RC_149_0 FE_RN_82_0 FE_OFN6_weight_in_5 FE_OFN9_weight_in_4 XOR2X4TS 
XFE_RC_148_0 FE_RN_81_0 n212 n213 XNOR2X4TS 
XFE_RC_147_0 n195 FE_RN_81_0 n208 XNOR2X4TS 
XFE_RC_141_0 n277 FE_OFN255_weight_in_7 FE_OFN150_data_in_7 XNOR2X2TS 
XFE_RC_140_0 n268 FE_RN_78_0 INVX2TS 
XFE_RC_139_0 FE_RN_78_0 FE_OFN255_weight_in_7 FE_PSN284_FE_OFN25_data_in_6 
+ XOR2X4TS 
XFE_RC_137_0 N50 FE_RN_77_0 FE_OFN105_FE_DBTN1_fire_in NOR2X2TS 
XFE_RC_135_0 FE_RN_75_0 n300 INVX2TS 
XFE_RC_134_0 FE_RN_76_0 n301 FE_RN_75_0 NAND2X2TS 
XFE_RC_133_0 N53 FE_RN_74_0 FE_RN_76_0 FE_OFN97_FE_DBTN1_fire_in AOI21X4TS 
XFE_RC_132_0 n141 FE_RN_2_0 tmp[6] XOR2X4TS 
XFE_RC_131_0 n108 FE_OFN243_weight_in_6 FE_DBTN2_weight_in_5 XOR2X4TS 
XFE_RC_130_0 n240 FE_RN_9_0 tmp[10] XOR2X4TS 
XFE_RC_129_0 FE_RN_73_0 FE_RN_62_0 INVX2TS 
XFE_RC_128_0 n137 FE_RN_73_0 n121 FE_RN_60_0 OAI2BB1X4TS 
XFE_RC_127_0 FE_OFN256_n279 n279 BUFX3TS 
XFE_RC_126_0 FE_OFN141_n279 n279 BUFX6TS 
XFE_RC_125_0 n495 FE_OFN257_n294 n491 n4901 AOI21X4TS 
XFE_RC_124_0 FE_DBTN0_n34 FE_OFN17_weight_in_1 FE_OFN149_weight_in_0 NAND2X4TS 
XFE_RC_123_0 n369 FE_OCPN174_n294 n527 n366 AOI21X2TS 
XFE_RC_122_0 n256 FE_OFN141_n279 n237 n254 FE_OFN129_n108 OAI22X4TS 
XFE_RC_121_0 FE_RN_20_0 n150 n151 XOR2X4TS 
XFE_RC_120_0 FE_RN_70_0 n92 FE_OFN112_FE_DBTN1_fire_in NOR2BX1TS 
XFE_RC_119_0 FE_RN_71_0 n335 FE_RN_70_0 NAND2X2TS 
XFE_RC_118_0 FE_RN_72_0 FE_OFN112_FE_DBTN1_fire_in n92 OR2X2TS 
XFE_RC_117_0 N57 n335 FE_RN_72_0 FE_RN_71_0 OAI21X1TS 
XFE_RC_116_0 n445 FE_OCPN174_n294 n442 n441 AOI21X2TS 
XU514_dup FE_RN_8 n259 n258 NAND2X2TS 
XFE_RC_113_0 FE_RN_63_0 n378 n373 NAND2X1TS 
XFE_RC_112_0 FE_RN_64_0 n378 n374 n373 OR3X2TS 
XFE_RC_111_0 FE_RN_65_0 n378 n374 CLKAND2X2TS 
XFE_RC_110_0 FE_RN_66_0 FE_OCPN169_n294 FE_RN_65_0 NAND2X1TS 
XFE_RC_109_0 FE_RN_67_0 n378 n373 NOR2X1TS 
XFE_RC_108_0 FE_RN_68_0 FE_OCPN169_n294 FE_RN_67_0 NAND2BX2TS 
XFE_RC_105_0 n263 n534 n262 n261 OAI21X2TS 
XFE_RC_104_0 FE_RN_59_0 n121 INVX2TS 
XFE_RC_103_0 FE_RN_60_0 FE_RN_62_0 FE_RN_59_0 NAND2X2TS 
XFE_RC_99_0 FE_RN_56_0 n94 FE_OFN115_FE_DBTN1_fire_in NOR2BX1TS 
XFE_RC_98_0 FE_RN_57_0 n456 FE_RN_56_0 NAND2X2TS 
XFE_RC_97_0 FE_RN_58_0 FE_OFN115_FE_DBTN1_fire_in n94 OR2X2TS 
XFE_RC_96_0 N56 n456 FE_RN_58_0 FE_RN_57_0 OAI21X1TS 
XFE_RC_94_0 FE_RN_55_0 tmp[4] INVX2TS 
XFE_RC_93_0 n174 FE_RN_55_0 FE_RN_20_0 FE_RN_17_0 OAI2BB1X2TS 
XFE_RC_92_0 FE_RN_52_0 FE_OFN100_FE_DBTN1_fire_in n539 NOR2X1TS 
XFE_RC_91_0 FE_RN_53_0 n5401 FE_RN_52_0 NAND2X1TS 
XFE_RC_90_0 FE_RN_54_0 FE_OFN100_FE_DBTN1_fire_in n539 NAND2BX1TS 
XFE_RC_89_0 N49 n5401 FE_RN_54_0 FE_RN_53_0 OAI21X1TS 
XFE_RC_84_0 n389 FE_OCPN175_n294 n384 n383 AOI21X4TS 
XFE_RC_80_0 FE_OFN259_weight_in_5 FE_DBTN2_weight_in_5 INVX6TS 
XFE_RC_79_0 FE_RN_41_0 n434 n4301 NAND2X1TS 
XFE_RC_78_0 FE_RN_42_0 n434 n431 NOR2X1TS 
XFE_RC_77_0 FE_RN_43_0 n4301 FE_RN_42_0 NAND2BX1TS 
XFE_RC_76_0 FE_RN_44_0 n434 n431 AND2X1TS 
XFE_RC_75_0 FE_RN_45_0 FE_OCPN175_n294 FE_RN_44_0 NAND2X1TS 
XFE_RC_74_0 FE_RN_46_0 n434 n4301 NOR2X1TS 
XFE_RC_73_0 FE_RN_47_0 FE_OCPN175_n294 FE_RN_46_0 NAND2BX1TS 
XFE_RC_71_0 n142 n253 FE_OFN6_weight_in_5 FE_RN_1 n117 OAI22X4TS 
XFE_OCPC263_data_in_4 FE_OFN260_data_in_4 FE_OFN28_data_in_4 BUFX8TS 
XFE_OCPC262_data_in_4 FE_OFN28_data_in_4 data_in[4] CLKBUFX2TS 
XFE_RC_37_0_dup FE_RN_7 FE_RN_25_0 FE_RN_26_0 OR2X4TS 
XU243_dup FE_RN_6 n213 n212 n211 OAI2BB1X2TS 
XU474_dup FE_RN_5 n188 n187 NAND2X1TS 
XFE_OCPC261_n102 FE_OFN124_n102 FE_RN_37_0 CLKINVX6TS 
XFE_OCPC260_n102 FE_OFN125_n102 FE_RN_37_0 INVX8TS 
XFE_OCPC259_n102 FE_OFN123_n102 FE_RN_37_0 INVX2TS 
XFE_OCPC258_n102 FE_RN_2 FE_RN_9 CLKINVX2TS 
XFE_OCPC253_n294_dup FE_RN_4 FE_OFN262_n294 INVX2TS 
XU211_dup FE_RN_3 FE_OFN124_n102 n101 NAND2X4TS 
XFE_RC_70_0 FE_RN_36_0 n204 CLKINVX1TS 
XFE_RC_68_0 FE_RN_38_0 FE_RN_2 FE_RN_36_0 NAND2X1TS 
XFE_RC_67_0 FE_RN_39_0 n253 CLKINVX1TS 
XFE_RC_66_0 FE_RN_40_0 n112 INVX1TS 
XFE_RC_65_0 n199 FE_RN_40_0 FE_RN_39_0 FE_RN_38_0 OAI2BB1X4TS 
XFE_RC_64_0 FE_RN_35_0 n209 n210 NAND2X2TS 
XFE_RC_63_0 n211 n208 FE_RN_35_0 NAND2X1TS 
XU402_dup FE_RN_1 FE_OCPN177_weight_in_3 FE_OFN9_weight_in_4 XNOR2X4TS 
XFE_OCPC255_n294 FE_OCPN175_n294 FE_OFN248_n294 INVX6TS 
XFE_OCPC254_n294 FE_OCPN174_n294 FE_OFN248_n294 INVX6TS 
XFE_OCPC253_n294 FE_OFN163_n294 FE_OFN262_n294 INVX6TS 
XFE_OCPC252_n294 FE_OCPN169_n294 FE_OFN262_n294 INVX6TS 
XFE_OCPC251_n294 FE_OFN257_n294 FE_OFN262_n294 CLKINVX12TS 
XFE_OCPC250_n294 FE_OFN92_n294 FE_OFN262_n294 INVX4TS 
XFE_OCPC249_n294 FE_OFN248_n294 n294 INVX4TS 
XFE_OCPC248_n294 FE_OFN262_n294 n294 INVX8TS 
XFE_RC_60_0 n591 n596 n597 n162 AOI21X4TS 
XFE_RC_55_0 n201 n119 n121 n105 OAI2BB1X2TS 
XFE_OCPC247_n128 FE_OCPN173_n128 n128 BUFX3TS 
XFE_RC_53_0 n584 n591 n588 n589 OAI21X4TS 
XFE_RC_52_0 n122 FE_DBTN0_n34 n116 n111 FE_OFN149_weight_in_0 OAI22X2TS 
XFE_RC_51_0 n290 n545 n544 n546 OAI21X4TS 
XFE_RC_43_0 n301 FE_OFN257_n294 n458 n4601 AOI21X4TS 
XFE_RC_41_0 n170 n168 FE_OFN149_weight_in_0 FE_RN_11 n157 OAI22X2TS 
XFE_RC_40_0 n150 FE_OFN249_n156 n143 FE_OFN139_n226 n164 OAI22X4TS 
XFE_OCPC244_n236 FE_OCPN170_n236 n236 BUFX3TS 
XFE_RC_39_0 FE_RN_25_0 n110 FE_OFN131_n156 NOR2X2TS 
XFE_RC_38_0 FE_RN_26_0 n129 n226 NOR2X2TS 
XFE_RC_37_0 n127 FE_RN_26_0 FE_RN_25_0 OR2X4TS 
XFE_RC_36_0 n236 n74 n228 FE_OFN123_n102 n239 OAI22X4TS 
XFE_RC_35_0 FE_RN_16_0 FE_RN_20_0 INVX2TS 
XFE_RC_34_0 FE_RN_17_0 FE_RN_16_0 tmp[4] NAND2X2TS 
XFE_RC_28_0 FE_RN_22_0 n150 CLKINVX2TS 
XFE_RC_27_0 FE_RN_23_0 n151 INVX2TS 
XFE_RC_26_0 FE_RN_24_0 FE_RN_23_0 FE_RN_22_0 tmp[4] OAI2BB1X4TS 
XFE_RC_24_0 FE_RN_10_0 n170 n171 NAND2X1TS 
XFE_RC_23_0 FE_RN_11_0 n170 n171 OR2X2TS 
XFE_RC_22_0 n172 tmp[2] FE_RN_11_0 FE_RN_10_0 OAI2BB1X1TS 
XFE_RC_21_0 FE_RN_12_0 FE_RN_14_0 INVX3TS 
XFE_RC_20_0 FE_RN_13_0 FE_RN_12_0 tmp[2] NAND2X4TS 
XFE_RC_19_0 FE_RN_14_0 n170 n171 XOR2X4TS 
XFE_RC_17_0 n161 FE_RN_12_0 tmp[2] FE_RN_13_0 OAI21X4TS 
XFE_RC_15_0 n555 n569 n191 n190 OAI21X4TS 
XFE_RC_14_0 FE_RN_6_0 tmp[9] FE_OCPN170_n236 NAND2X2TS 
XFE_RC_13_0 FE_RN_7_0 tmp[10] FE_OCPN170_n236 NAND2X2TS 
XFE_RC_12_0 FE_RN_8_0 tmp[10] tmp[9] NAND2X1TS 
XFE_RC_11_0 n250 FE_RN_8_0 FE_RN_7_0 FE_RN_6_0 NAND3X4TS 
XFE_RC_10_0 FE_RN_9_0 n236 tmp[9] XOR2X4TS 
XFE_RC_6_0 FE_RN_3_0 FE_OCPN173_n128 FE_RN_7 NAND2X2TS 
XFE_RC_5_0 FE_RN_4_0 tmp[6] FE_RN_7 NAND2X2TS 
XFE_RC_4_0 FE_RN_5_0 FE_OCPN173_n128 tmp[6] NAND2X2TS 
XFE_RC_3_0 n124 FE_RN_5_0 FE_RN_4_0 FE_RN_3_0 NAND3X2TS 
XFE_RC_2_0 FE_RN_0_0 n196 INVX2TS 
XFE_RC_1_0 FE_RN_1_0 n555 n197 NAND2X2TS 
XFE_RC_0_0 n293 FE_RN_1_0 FE_RN_0_0 AND2X8TS 
XFE_OFC261_data_in_2 FE_OFN261_data_in_2 data_in[2] CLKBUFX3TS 
XFE_OFC258_FE_DBTN0_n34 FE_OFN258_FE_DBTN0_n34 FE_RN_11 BUFX6TS 
XFE_OFC255_weight_in_7 FE_OFN255_weight_in_7 FE_OFN142_weight_in_7 BUFX8TS 
XFE_OFC242_n108 FE_OFN168_n108 n108 BUFX6TS 
XFE_OFC250_data_in_0 FE_OFN250_data_in_0 FE_OFN245_data_in_0 BUFX4TS 
XFE_OFC249_n156 FE_OFN249_n156 FE_OFN131_n156 BUFX3TS 
XFE_OFC247_weight_in_5 FE_OFN247_weight_in_5 FE_OFN259_weight_in_5 BUFX4TS 
XFE_OFC241_weight_in_7 FE_OFN167_n FE_OFN240_weight_in_7 CLKBUFX2TS 
XFE_OFC239_weight_in_7 FE_OFN166_n FE_OFN240_weight_in_7 BUFX3TS 
XFE_OFC238_weight_in_7 FE_OFN165_n FE_OFN240_weight_in_7 BUFX4TS 
XFE_OFC246_data_in_5 FE_OFN246_data_in_5 data_in[5] CLKBUFX2TS 
XFE_OFC245_data_in_0 FE_OFN245_data_in_0 data_in[0] CLKBUFX4TS 
XFE_OFC244_weight_in_1 FE_OFN244_weight_in_1 FE_OFN16_weight_in_1 BUFX6TS 
XFE_OFC243_weight_in_6 FE_OFN243_weight_in_6 weight_in[6] CLKBUFX4TS 
XFE_OFC242_data_in_7 FE_OFN242_data_in_7 data_in[7] BUFX2TS 
XFE_OFC240_weight_in_7 FE_OFN240_weight_in_7 weight_in[7] BUFX3TS 
XFE_OFC239_fire_in FE_OFN239_fire_in fire_in BUFX3TS 
XFE_OFC238_weight_in_4 FE_OFN238_weight_in_4 weight_in[4] BUFX3TS 
XFE_OFC235_weight_in_5 FE_OFN235_weight_in_5 weight_in[5] BUFX3TS 
XFE_OFC234_FE_DBTN2_weight_in_5 FE_OFN159_n FE_OFN259_weight_in_5 BUFX4TS 
XFE_OFC233_FE_DBTN2_weight_in_5 FE_OFN6_weight_in_5 FE_OFN259_weight_in_5 
+ INVX8TS 
XFE_OFC231_n108 FE_OFN161_n108 n108 BUFX3TS 
XFE_OFC230_n108 FE_OFN129_n108 FE_OFN168_n108 BUFX6TS 
XFE_OFC229_weight_in_7 FE_OFN142_weight_in_7 FE_OFN165_n BUFX8TS 
XFE_OFC227_n412 n415 n412 CLKINVX2TS 
XFE_OFC225_n428 n4401 n428 INVX2TS 
XFE_OFC224_n533 n257 n533 INVX2TS 
XFE_OFC223_n582 n183 n582 INVX3TS 
XFE_OFC222_n545 n547 n545 CLKINVX2TS 
XFE_OFC221_n156 FE_OFN130_n156 n156 BUFX3TS 
XFE_OFC220_n156 FE_OFN131_n156 n156 BUFX8TS 
XFE_OFC216_weight_in_5 FE_DBTN2_weight_in_5 FE_OFN235_weight_in_5 INVX6TS 
XFE_OFC213_n424 n437 n424 INVX2TS 
XFE_OFC202_data_in_3 FE_OFN30_data_in_3 data_in[3] CLKBUFX2TS 
XFE_OFC201_weight_in_2 FE_OFN15_weight_in_2 weight_in[2] BUFX3TS 
XFE_OFC199_data_in_2 FE_OFN33_data_in_2 FE_OFN261_data_in_2 BUFX3TS 
XFE_OFC197_weight_in_4 FE_OFN9_weight_in_4 FE_OFN238_weight_in_4 BUFX12TS 
XFE_OFC196_data_in_0 FE_OFN157_data_in_0 FE_OFN250_data_in_0 CLKBUFX2TS 
XFE_OFC195_data_in_0 FE_OFN39_data_in_0 FE_OFN250_data_in_0 BUFX8TS 
XFE_OFC191_data_in_6 FE_OFN25_data_in_6 FE_PDN278_data_in_6 BUFX3TS 
XFE_OFC190_data_in_5 FE_OFN27_data_in_5 FE_OFN246_data_in_5 BUFX3TS 
XFE_OFC183_weight_in_1 FE_OFN17_weight_in_1 FE_OFN244_weight_in_1 BUFX6TS 
XFE_OFC182_weight_in_1 FE_OFN19_weight_in_1 FE_OFN244_weight_in_1 BUFX8TS 
XFE_OFC181_weight_in_1 FE_OFN16_weight_in_1 weight_in[1] BUFX4TS 
XFE_OFC180_data_in_7 FE_OFN150_data_in_7 FE_OFN242_data_in_7 CLKBUFX2TS 
XFE_OFC178_data_in_1 FE_OFN156_data_in_1 FE_OFN35_data_in_1 CLKBUFX2TS 
XFE_OFC177_data_in_1 FE_OFN35_data_in_1 data_in[1] BUFX3TS 
XFE_OFC174_weight_in_0 FE_OFN149_weight_in_0 n166 INVX4TS 
XFE_OFC172_weight_in_0 n166 weight_in[0] BUFX3TS 
XFE_OFC158_rst_n FE_OFN158_rst_n rst_n CLKBUFX2TS 
XFE_OFC139_n226 FE_OFN139_n226 n226 BUFX8TS 
XFE_OFC138_n226 FE_OFN138_n226 n226 BUFX4TS 
XFE_OFC122_FE_DBTN1_fire_in FE_OFN122_FE_DBTN1_fire_in 
+ FE_OFN120_FE_DBTN1_fire_in BUFX3TS 
XFE_OFC121_FE_DBTN1_fire_in FE_OFN121_FE_DBTN1_fire_in 
+ FE_OFN119_FE_DBTN1_fire_in INVX2TS 
XFE_OFC120_FE_DBTN1_fire_in FE_OFN120_FE_DBTN1_fire_in 
+ FE_OFN119_FE_DBTN1_fire_in INVX2TS 
XFE_OFC119_FE_DBTN1_fire_in FE_OFN119_FE_DBTN1_fire_in 
+ FE_OFN118_FE_DBTN1_fire_in INVX2TS 
XFE_OFC118_FE_DBTN1_fire_in FE_OFN118_FE_DBTN1_fire_in 
+ FE_OFN116_FE_DBTN1_fire_in CLKBUFX2TS 
XFE_OFC117_FE_DBTN1_fire_in FE_OFN117_FE_DBTN1_fire_in 
+ FE_OFN113_FE_DBTN1_fire_in CLKBUFX2TS 
XFE_OFC116_FE_DBTN1_fire_in FE_OFN116_FE_DBTN1_fire_in 
+ FE_OFN113_FE_DBTN1_fire_in CLKBUFX2TS 
XFE_OFC115_FE_DBTN1_fire_in FE_OFN115_FE_DBTN1_fire_in 
+ FE_OFN113_FE_DBTN1_fire_in CLKBUFX2TS 
XFE_OFC114_FE_DBTN1_fire_in FE_OFN114_FE_DBTN1_fire_in 
+ FE_OFN110_FE_DBTN1_fire_in CLKBUFX2TS 
XFE_OFC113_FE_DBTN1_fire_in FE_OFN113_FE_DBTN1_fire_in 
+ FE_OFN109_FE_DBTN1_fire_in CLKBUFX2TS 
XFE_OFC112_FE_DBTN1_fire_in FE_OFN112_FE_DBTN1_fire_in 
+ FE_OFN108_FE_DBTN1_fire_in INVX2TS 
XFE_OFC111_FE_DBTN1_fire_in FE_OFN111_FE_DBTN1_fire_in 
+ FE_OFN108_FE_DBTN1_fire_in INVX2TS 
XFE_OFC110_FE_DBTN1_fire_in FE_OFN110_FE_DBTN1_fire_in 
+ FE_OFN107_FE_DBTN1_fire_in CLKBUFX2TS 
XFE_OFC109_FE_DBTN1_fire_in FE_OFN109_FE_DBTN1_fire_in 
+ FE_OFN106_FE_DBTN1_fire_in BUFX3TS 
XFE_OFC108_FE_DBTN1_fire_in FE_OFN108_FE_DBTN1_fire_in 
+ FE_OFN105_FE_DBTN1_fire_in INVX2TS 
XFE_OFC107_FE_DBTN1_fire_in FE_OFN107_FE_DBTN1_fire_in 
+ FE_OFN104_FE_DBTN1_fire_in CLKBUFX2TS 
XFE_OFC106_FE_DBTN1_fire_in FE_OFN106_FE_DBTN1_fire_in 
+ FE_OFN102_FE_DBTN1_fire_in BUFX3TS 
XFE_OFC105_FE_DBTN1_fire_in FE_OFN105_FE_DBTN1_fire_in 
+ FE_OFN100_FE_DBTN1_fire_in CLKBUFX2TS 
XFE_OFC104_FE_DBTN1_fire_in FE_OFN104_FE_DBTN1_fire_in 
+ FE_OFN99_FE_DBTN1_fire_in CLKBUFX2TS 
XFE_OFC103_FE_DBTN1_fire_in FE_OFN103_FE_DBTN1_fire_in 
+ FE_OFN99_FE_DBTN1_fire_in CLKBUFX2TS 
XFE_OFC102_FE_DBTN1_fire_in FE_OFN102_FE_DBTN1_fire_in 
+ FE_OFN98_FE_DBTN1_fire_in CLKBUFX2TS 
XFE_OFC101_FE_DBTN1_fire_in FE_OFN101_FE_DBTN1_fire_in 
+ FE_OFN98_FE_DBTN1_fire_in CLKBUFX2TS 
XFE_OFC100_FE_DBTN1_fire_in FE_OFN100_FE_DBTN1_fire_in 
+ FE_OFN97_FE_DBTN1_fire_in CLKBUFX2TS 
XFE_OFC99_FE_DBTN1_fire_in FE_OFN99_FE_DBTN1_fire_in FE_DBTN1_fire_in 
+ CLKBUFX2TS 
XFE_OFC98_FE_DBTN1_fire_in FE_OFN98_FE_DBTN1_fire_in FE_DBTN1_fire_in 
+ CLKBUFX2TS 
XFE_OFC97_FE_DBTN1_fire_in FE_OFN97_FE_DBTN1_fire_in FE_DBTN1_fire_in 
+ CLKBUFX2TS 
XFE_OFC89_fire_in FE_OFN89_fire_in FE_OFN88_fire_in CLKBUFX2TS 
XFE_OFC88_fire_in FE_OFN88_fire_in FE_OFN86_fire_in INVX2TS 
XFE_OFC87_fire_in FE_OFN87_fire_in FE_OFN86_fire_in INVX2TS 
XFE_OFC86_fire_in FE_OFN86_fire_in FE_OFN85_fire_in INVX2TS 
XFE_OFC85_fire_in FE_OFN85_fire_in FE_OFN84_fire_in CLKBUFX2TS 
XFE_OFC84_fire_in FE_OFN84_fire_in FE_OFN83_fire_in CLKBUFX2TS 
XFE_OFC83_fire_in FE_OFN83_fire_in FE_OFN80_fire_in CLKBUFX2TS 
XFE_OFC82_fire_in FE_OFN82_fire_in FE_OFN79_fire_in INVX2TS 
XFE_OFC81_fire_in FE_OFN81_fire_in FE_OFN79_fire_in INVX2TS 
XFE_OFC80_fire_in FE_OFN80_fire_in FE_OFN78_fire_in CLKBUFX2TS 
XFE_OFC79_fire_in FE_OFN79_fire_in FE_OFN77_fire_in INVX2TS 
XFE_OFC78_fire_in FE_OFN78_fire_in FE_OFN77_fire_in CLKBUFX2TS 
XFE_OFC77_fire_in FE_OFN77_fire_in FE_OFN239_fire_in CLKBUFX2TS 
XFE_OFC75_rst_n FE_OFN75_rst_n FE_OFN73_rst_n BUFX4TS 
XFE_OFC74_rst_n FE_OFN74_rst_n FE_OFN72_rst_n INVX2TS 
XFE_OFC73_rst_n FE_OFN73_rst_n FE_OFN72_rst_n INVX2TS 
XFE_OFC72_rst_n FE_OFN72_rst_n FE_OFN70_rst_n INVX2TS 
XFE_OFC71_rst_n FE_OFN71_rst_n FE_OFN69_rst_n CLKBUFX2TS 
XFE_OFC70_rst_n FE_OFN70_rst_n FE_OFN69_rst_n BUFX3TS 
XFE_OFC69_rst_n FE_OFN69_rst_n FE_OFN67_rst_n BUFX4TS 
XFE_OFC68_rst_n FE_OFN68_rst_n FE_OFN65_rst_n CLKBUFX2TS 
XFE_OFC67_rst_n FE_OFN67_rst_n FE_OFN64_rst_n CLKINVX2TS 
XFE_OFC66_rst_n FE_OFN66_rst_n FE_OFN64_rst_n INVX2TS 
XFE_OFC65_rst_n FE_OFN65_rst_n FE_OFN63_rst_n CLKBUFX2TS 
XFE_OFC64_rst_n FE_OFN64_rst_n FE_OFN62_rst_n INVX2TS 
XFE_OFC63_rst_n FE_OFN63_rst_n FE_OFN61_rst_n CLKBUFX2TS 
XFE_OFC62_rst_n FE_OFN62_rst_n FE_OFN60_rst_n BUFX3TS 
XFE_OFC61_rst_n FE_OFN61_rst_n FE_OFN59_rst_n CLKBUFX2TS 
XFE_OFC60_rst_n FE_OFN60_rst_n FE_OFN56_rst_n BUFX3TS 
XFE_OFC59_rst_n FE_OFN59_rst_n FE_OFN55_rst_n CLKBUFX2TS 
XFE_OFC58_rst_n FE_OFN58_rst_n FE_OFN55_rst_n CLKBUFX2TS 
XFE_OFC57_rst_n FE_OFN57_rst_n FE_OFN54_rst_n INVX2TS 
XFE_OFC56_rst_n FE_OFN56_rst_n FE_OFN54_rst_n CLKINVX4TS 
XFE_OFC55_rst_n FE_OFN55_rst_n FE_OFN53_rst_n CLKBUFX2TS 
XFE_OFC54_rst_n FE_OFN54_rst_n FE_OFN52_rst_n INVX2TS 
XFE_OFC53_rst_n FE_OFN53_rst_n FE_OFN51_rst_n CLKBUFX2TS 
XFE_OFC52_rst_n FE_OFN52_rst_n FE_OFN50_rst_n CLKINVX6TS 
XFE_OFC51_rst_n FE_OFN51_rst_n FE_OFN50_rst_n INVX2TS 
XFE_OFC50_rst_n FE_OFN50_rst_n FE_OFN49_rst_n INVX2TS 
XFE_OFC49_rst_n FE_OFN49_rst_n FE_OFN48_rst_n BUFX3TS 
XFE_OFC48_rst_n FE_OFN48_rst_n FE_OFN47_rst_n CLKBUFX2TS 
XFE_OFC47_rst_n FE_OFN47_rst_n FE_OFN45_rst_n CLKBUFX2TS 
XFE_OFC46_rst_n FE_OFN46_rst_n FE_OFN44_rst_n INVX2TS 
XFE_OFC45_rst_n FE_OFN45_rst_n FE_OFN44_rst_n INVX2TS 
XFE_OFC44_rst_n FE_OFN44_rst_n FE_OFN43_rst_n INVX2TS 
XFE_OFC43_rst_n FE_OFN43_rst_n FE_OFN158_rst_n BUFX3TS 
XFE_OFC41_data_out_0 data_out[0] FE_OFN41_data_out_0 CLKBUFX2TS 
XFE_DBTC1_fire_in FE_DBTN1_fire_in FE_OFN78_fire_in INVX3TS 
Xtmp_reg_13_ tmp[13] n89 clk N50 FE_OFN59_rst_n DFFRXLTS 
Xtmp_reg_12_ tmp[12] 1000 clk N49 FE_OFN59_rst_n DFFRX1TS 
Xtmp_reg_11_ tmp[11] n85 clk N48 FE_OFN58_rst_n DFFRX1TS 
Xtmp_reg_10_ tmp[10] 1001 clk N47 FE_OFN53_rst_n DFFRX1TS 
Xtmp_reg_8_ tmp[8] 1002 clk N45 FE_OFN158_rst_n DFFRX4TS 
Xtmp_reg_5_ tmp[5] 1003 clk N42 FE_OFN43_rst_n DFFRX2TS 
Xtmp_reg_2_ tmp[2] 1004 clk N39 FE_OFN47_rst_n DFFRX2TS 
Xtmp_reg_1_ tmp[1] 1005 clk N38 FE_OFN49_rst_n DFFRX2TS 
Xtmp_reg_0_ tmp[0] 1006 clk N37 FE_OFN51_rst_n DFFRX2TS 
Xtmp_reg_3_ tmp[3] clk N40 FE_OFN43_rst_n DFFRHQX1TS 
Xtmp_reg_7_ tmp[7] clk N44 FE_OFN158_rst_n DFFRHQX2TS 
Xtmp_reg_9_ tmp[9] clk N46 FE_OFN58_rst_n DFFRHQX2TS 
Xtmp_reg_14_ tmp[14] clk N51 FE_OFN61_rst_n DFFRHQX2TS 
Xtmp_reg_16_ tmp[16] clk N53 FE_OFN59_rst_n DFFRHQX2TS 
Xtmp_reg_24_ tmp[24] clk N61 FE_OFN68_rst_n DFFRHQX2TS 
Xtmp_reg_20_ tmp[20] clk N57 FE_OFN65_rst_n DFFRHQX2TS 
Xtmp_reg_27_ tmp[27] clk N64 FE_OFN74_rst_n DFFRHQX2TS 
Xtmp_reg_25_ tmp[25] clk N62 FE_OFN68_rst_n DFFRHQX2TS 
Xtmp_reg_23_ tmp[23] clk N60 FE_OFN68_rst_n DFFRHQX2TS 
Xtmp_reg_21_ tmp[21] clk N58 FE_OFN65_rst_n DFFRHQX4TS 
Xtmp_reg_19_ tmp[19] clk N56 FE_OFN66_rst_n DFFRHQX2TS 
Xtmp_reg_17_ tmp[17] clk N54 FE_OFN62_rst_n DFFRHQX2TS 
Xtmp_reg_26_ tmp[26] clk N63 FE_OFN74_rst_n DFFRHQX2TS 
Xtmp_reg_31_ tmp[31] clk N68 FE_OFN75_rst_n DFFRHQX2TS 
Xtmp_reg_15_ tmp[15] clk N52 FE_OFN61_rst_n DFFRHQX4TS 
Xtmp_reg_29_ tmp[29] clk N66 FE_OFN75_rst_n DFFRHQX2TS 
Xtmp_reg_18_ tmp[18] clk N55 FE_OFN66_rst_n DFFRHQX4TS 
Xtmp_reg_30_ tmp[30] clk N67 FE_OFN75_rst_n DFFRHQX2TS 
Xtmp_reg_28_ tmp[28] clk N65 FE_OFN74_rst_n DFFRHQX2TS 
Xtmp_reg_22_ tmp[22] clk N59 FE_OFN68_rst_n DFFRHQX4TS 
Xdata_out_reg_6_ data_out[6] 1007 clk FE_PSN284_FE_OFN25_data_in_6 
+ FE_OFN61_rst_n DFFRXLTS 
Xresult_reg_28_ result[28] 1008 clk n627 FE_OFN71_rst_n DFFRXLTS 
Xresult_reg_13_ result[13] 1009 clk n631 FE_OFN60_rst_n DFFRXLTS 
Xtmp_reg_4_ tmp[4] 1010 clk N41 FE_OFN46_rst_n DFFRX2TS 
Xdata_out_reg_2_ data_out[2] 1011 clk FE_OFN33_data_in_2 FE_OFN58_rst_n 
+ DFFRXLTS 
Xdata_out_reg_4_ data_out[4] 1012 clk FE_OFN260_data_in_4 FE_OFN63_rst_n 
+ DFFRXLTS 
Xweight_out_reg_6_ weight_out[6] 1013 clk FE_OFN243_weight_in_6 FE_OFN47_rst_n 
+ DFFRXLTS 
Xweight_out_reg_1_ weight_out[1] 1014 clk FE_OFN19_weight_in_1 FE_OFN45_rst_n 
+ DFFRXLTS 
Xfire_out_reg fire_out 1015 clk FE_OFN82_fire_in FE_OFN48_rst_n DFFRXLTS 
Xweight_out_reg_2_ weight_out[2] 1016 clk FE_OFN15_weight_in_2 FE_OFN46_rst_n 
+ DFFRXLTS 
Xweight_out_reg_0_ weight_out[0] 1017 clk n166 FE_OFN46_rst_n DFFRXLTS 
Xdata_out_reg_7_ data_out[7] 1018 clk FE_OFN150_data_in_7 FE_OFN63_rst_n 
+ DFFRXLTS 
Xdata_out_reg_5_ data_out[5] 1019 clk FE_OFN27_data_in_5 FE_OFN63_rst_n 
+ DFFRXLTS 
Xdata_out_reg_3_ data_out[3] 1020 clk FE_OCPN178_FE_OFN30_data_in_3 
+ FE_OFN58_rst_n DFFRXLTS 
Xdata_out_reg_1_ data_out[1] 1021 clk FE_OFN156_data_in_1 FE_OFN55_rst_n 
+ DFFRXLTS 
Xdata_out_reg_0_ FE_OFN41_data_out_0 1022 clk FE_OFN157_data_in_0 
+ FE_OFN53_rst_n DFFRXLTS 
Xweight_out_reg_5_ weight_out[5] 1023 clk FE_OFN247_weight_in_5 FE_OFN45_rst_n 
+ DFFRXLTS 
Xweight_out_reg_3_ weight_out[3] 1024 clk FE_OFN11_weight_in_3 FE_OFN43_rst_n 
+ DFFRXLTS 
Xweight_out_reg_4_ weight_out[4] 1025 clk FE_OFN9_weight_in_4 FE_OFN45_rst_n 
+ DFFRXLTS 
Xweight_out_reg_7_ weight_out[7] 1026 clk FE_OFN166_n FE_OFN47_rst_n DFFRXLTS 
Xresult_reg_31_ result[31] 1027 clk n644 FE_OFN71_rst_n DFFRXLTS 
Xresult_reg_30_ result[30] 1028 clk n629 FE_OFN75_rst_n DFFRXLTS 
Xresult_reg_29_ result[29] 1029 clk n628 FE_OFN71_rst_n DFFRXLTS 
Xresult_reg_27_ result[27] 1030 clk n626 FE_OFN69_rst_n DFFRXLTS 
Xresult_reg_26_ result[26] 1031 clk n625 FE_OFN73_rst_n DFFRXLTS 
Xresult_reg_25_ result[25] 1032 clk n624 FE_OFN70_rst_n DFFRXLTS 
Xresult_reg_24_ result[24] 1033 clk n623 FE_OFN66_rst_n DFFRXLTS 
Xresult_reg_23_ result[23] 1034 clk n622 FE_OFN70_rst_n DFFRXLTS 
Xresult_reg_22_ result[22] 1035 clk n621 FE_OFN71_rst_n DFFRXLTS 
Xresult_reg_21_ result[21] 1036 clk n6201 FE_OFN67_rst_n DFFRXLTS 
Xresult_reg_20_ result[20] 1037 clk n619 FE_OFN69_rst_n DFFRXLTS 
Xresult_reg_19_ result[19] 1038 clk n618 FE_OFN67_rst_n DFFRXLTS 
Xresult_reg_18_ result[18] 1039 clk n617 FE_OFN67_rst_n DFFRXLTS 
Xresult_reg_17_ result[17] 1040 clk n616 FE_OFN62_rst_n DFFRXLTS 
Xresult_reg_16_ result[16] 1041 clk n615 FE_OFN62_rst_n DFFRXLTS 
Xresult_reg_15_ result[15] 1042 clk n614 FE_OFN60_rst_n DFFRXLTS 
Xresult_reg_14_ result[14] 1043 clk n637 FE_OFN60_rst_n DFFRXLTS 
Xresult_reg_12_ result[12] 1044 clk n639 FE_OFN56_rst_n DFFRXLTS 
Xresult_reg_11_ result[11] 1045 clk n613 FE_OFN56_rst_n DFFRXLTS 
Xresult_reg_10_ result[10] 1046 clk n636 FE_OFN57_rst_n DFFRXLTS 
Xresult_reg_9_ result[9] 1047 clk n6301 FE_OFN56_rst_n DFFRXLTS 
Xresult_reg_8_ result[8] 1048 clk n634 FE_OFN55_rst_n DFFRXLTS 
Xresult_reg_7_ result[7] 1049 clk n632 FE_OFN53_rst_n DFFRXLTS 
Xresult_reg_6_ result[6] 1050 clk n6401 FE_OFN51_rst_n DFFRXLTS 
Xresult_reg_5_ result[5] 1051 clk n643 FE_OFN51_rst_n DFFRXLTS 
Xresult_reg_4_ result[4] 1052 clk n638 FE_OFN52_rst_n DFFRXLTS 
Xresult_reg_3_ result[3] 1053 clk n642 FE_OFN57_rst_n DFFRXLTS 
Xresult_reg_2_ result[2] 1054 clk n635 FE_OFN49_rst_n DFFRXLTS 
Xresult_reg_1_ result[1] 1055 clk n641 FE_OFN48_rst_n DFFRXLTS 
Xresult_reg_0_ result[0] 1056 clk n633 FE_OFN52_rst_n DFFRXLTS 
Xtmp_reg_6_ tmp[6] 1057 clk N43 FE_OFN158_rst_n DFFRX2TS 
XU69 N51 n5301 FE_OFN105_FE_DBTN1_fire_in NOR2BX4TS 
XU73 n422 n4201 n96 XOR2X4TS 
XU77 n424 n365 n318 NOR2X2TS 
XU78 n563 n192 n193 NOR2X4TS 
XU79 n365 n296 n295 NOR2X2TS 
XU80 n537 n259 n258 OR2X6TS 
XU81 n175 n177 tmp[3] n169 ADDHX2TS 
XU82 n275 n266 tmp[12] tmp[11] n269 ADDFHX2TS 
XU83 n280 FE_OFN141_n279 FE_OFN129_n108 n277 AO21X2TS 
XU85 n119 n104 FE_OFN161_n108 n103 OAI21X2TS 
XU92 n344 n406 INVX2TS 
XU93 n326 n482 INVX2TS 
XU95 n135 FE_RN_3 n130 FE_OFN125_n102 n115 OAI22X4TS 
XU96 n348 n392 n347 n346 OAI21XLTS 
XU97 n4501 n447 INVX2TS 
XU98 n375 n354 tmp[28] NOR2XLTS 
XU99 n324 tmp[23] INVX2TS 
XU100 n331 tmp[24] INVX2TS 
XU101 n387 n385 INVX2TS 
XU102 n366 n526 INVX2TS 
XU103 n455 n309 tmp[18] OR2X1TS 
XU105 n304 n462 INVX2TS 
XU106 n602 n6001 INVX2TS 
XU107 n5501 FE_PSN286_n544 INVX2TS 
XU112 N47 n35 FE_OFN97_FE_DBTN1_fire_in NOR2X2TS 
XU113 n396 n4001 INVX1TS 
XU114 n404 n403 n402 n401 OAI21X1TS 
XU115 n395 n403 INVX1TS 
XU116 n417 n411 n414 NOR2X1TS 
XU118 n411 n4101 INVX1TS 
XU119 n374 n371 INVX1TS 
XU120 n4801 n479 INVX1TS 
XU121 n471 n371 n375 NOR2X1TS 
XU122 n373 n372 INVX1TS 
XU123 n4301 n479 n429 n482 OAI21X1TS 
XU124 n481 n478 INVX1TS 
XU125 n4101 n437 n330 NOR2X2TS 
XU126 n564 n563 INVX1TS 
XU127 n464 n463 n462 n461 OAI21X1TS 
XU128 n452 n489 n451 n492 OAI21X1TS 
XU130 n491 n488 INVX1TS 
XU131 n4901 n489 INVX1TS 
XU132 n459 n458 INVX1TS 
XU133 n463 n4601 INVX1TS 
XU134 n260 n532 INVX1TS 
XU136 n210 n212 INVX1TS 
XU137 n5901 n588 INVX1TS 
XU138 n316 n367 INVX2TS 
XU139 n162 n595 INVX2TS 
XU140 n353 n382 n385 NOR2X1TS 
XU141 n352 n381 n385 n386 OAI21X1TS 
XU142 n329 n350 INVX1TS 
XU143 n330 n338 INVX1TS 
XU144 n314 n448 n313 n312 OAI21X1TS 
XU145 n315 n447 n313 NOR2X1TS 
XU146 n426 n425 INVX1TS 
XU147 n349 n391 n347 NOR2X1TS 
XU148 n338 n423 n328 NOR2X1TS 
XU149 n427 n423 INVX1TS 
XU150 n350 n425 n328 n327 OAI21X1TS 
XU151 n393 n392 INVX1TS 
XU152 n449 n448 INVX1TS 
XU154 n378 n377 n376 AND2X2TS 
XU155 n494 n493 n492 AND2X2TS 
XU156 n434 n433 n432 AND2X2TS 
XU157 n91 n407 n406 AND2X2TS 
XU158 n377 n375 INVX1TS 
XU159 n397 n402 INVX1TS 
XU160 n356 n472 INVX1TS 
XU161 n345 n401 INVX1TS 
XU162 n341 n413 INVX1TS 
XU163 n340 n418 INVX1TS 
XU164 n337 n414 INVX1TS 
XU165 n307 n461 INVX1TS 
XU166 n321 n443 INVX1TS 
XU167 n306 n466 INVX1TS 
XU168 n310 n454 INVX1TS 
XU169 n493 n451 INVX1TS 
XU170 n311 n492 INVX1TS 
XU171 n325 n432 INVX1TS 
XU172 n334 n439 INVX1TS 
XU173 n322 n438 INVX1TS 
XU174 n483 n429 INVX1TS 
XU179 n361 n360 tmp[30] NAND2XLTS 
XU180 n385 n351 tmp[27] NOR2X1TS 
XU181 n451 n308 tmp[17] NOR2X1TS 
XU182 n473 n355 tmp[29] OR2X2TS 
XU183 n402 n342 tmp[25] NOR2X1TS 
XU184 n414 n331 tmp[23] NOR2X1TS 
XU185 n407 n343 tmp[26] OR2X2TS 
XU186 n433 n324 tmp[22] OR2X2TS 
XU187 n419 n339 tmp[24] OR2X2TS 
XU188 n439 n319 tmp[19] NOR2X1TS 
XU189 n429 n323 tmp[21] NOR2X1TS 
XU190 n444 n320 tmp[20] OR2X2TS 
XU191 n467 n305 tmp[16] OR2X2TS 
XU192 n320 tmp[21] INVX1TS 
XU193 n319 tmp[20] INVX1TS 
XU194 n323 tmp[22] INVX1TS 
XU195 n309 tmp[19] INVX1TS 
XU196 n299 tmp[16] INVX1TS 
XU197 n308 tmp[18] INVX1TS 
XU198 n305 tmp[17] INVX1TS 
XU199 n360 tmp[31] INVX1TS 
XU200 n351 tmp[28] INVX1TS 
XU201 n354 tmp[29] INVX1TS 
XU202 n343 tmp[27] INVX1TS 
XU203 n355 tmp[30] INVX1TS 
XU204 n342 tmp[26] INVX1TS 
XU205 n339 tmp[25] INVX1TS 
XU208 n205 FE_OFN138_n226 n106 FE_OFN130_n156 n206 OAI22X2TS 
XU209 n287 n537 n284 NAND2X6TS 
XU210 n255 n74 n239 n251 FE_OFN123_n102 OAI22X4TS 
XU211 n74 n101 FE_OFN125_n102 NAND2X4TS 
XU212 n226 n98 n156 NAND2X4TS 
XU213 n531 n281 INVX2TS 
XU214 n292 n281 n289 NAND2X4TS 
XU215 n4601 n526 n303 n367 OAI21X1TS 
XU216 n526 n296 n295 NAND2X2TS 
XU217 n428 n318 n526 n317 OAI21X4TS 