*SPEF "IEEE 1481-1998"
*DESIGN "PE"
*DATE "Sat Apr  9 14:55:11 2022"
*VENDOR "Cadence Design Systems, Inc."
*PROGRAM "Innovus"
*VERSION "19.10-p002_1"
*DESIGN_FLOW "COUPLING C" "PIN_CAP NONE" "NAME_SCOPE LOCAL"
*DIVIDER /
*DELIMITER :
*BUS_DELIMITER []
*T_UNIT 1 NS
*C_UNIT 1 PF
*R_UNIT 1 OHM
*L_UNIT 1 HENRY

// MMMC spef file for corner 'typical_rc'

*NAME_MAP

*1 FE_PSN287_n222
*2 FE_PSN286_n544
*3 FE_PSN285_n565
*4 FE_PSN284_FE_OFN25_data_in_6
*5 FE_PSN283_n110
*6 FE_PSN281_n205
*7 FE_PSN280_n555
*8 FE_PDN279_weight_in_3
*9 FE_PDN278_data_in_6
*10 FE_OCPN178_FE_OFN30_data_in_3
*11 FE_RN_105_0
*12 FE_RN_104_0
*13 FE_RN_103_0
*14 FE_RN_12
*15 FE_RN_11
*16 FE_RN_102_0
*17 FE_RN_101_0
*18 FE_RN_100_0
*19 FE_RN_99_0
*20 FE_RN_98_0
*21 FE_RN_10
*22 FE_OCPN271_n255
*23 FE_RN_97_0
*24 FE_OCPN177_weight_in_3
*25 FE_RN_9
*26 FE_RN_95_0
*27 FE_RN_94_0
*28 FE_RN_93_0
*29 FE_RN_92_0
*30 FE_RN_91_0
*31 FE_RN_90_0
*32 FE_RN_89_0
*33 FE_RN_88_0
*34 FE_RN_87_0
*35 FE_RN_86_0
*36 FE_RN_85_0
*37 FE_RN_84_0
*38 FE_RN_83_0
*39 FE_RN_82_0
*40 FE_RN_81_0
*41 FE_RN_78_0
*42 FE_RN_77_0
*43 FE_RN_76_0
*44 FE_RN_75_0
*45 FE_RN_74_0
*46 FE_RN_73_0
*47 FE_RN_72_0
*48 FE_RN_71_0
*49 FE_RN_70_0
*50 FE_RN_8
*51 FE_RN_68_0
*52 FE_RN_67_0
*53 FE_RN_66_0
*54 FE_RN_65_0
*55 FE_RN_64_0
*56 FE_RN_63_0
*57 FE_RN_62_0
*58 FE_RN_60_0
*59 FE_RN_59_0
*60 FE_RN_58_0
*61 FE_RN_57_0
*62 FE_RN_56_0
*63 FE_RN_55_0
*64 FE_RN_54_0
*65 FE_RN_53_0
*66 FE_RN_52_0
*67 FE_RN_47_0
*68 FE_RN_46_0
*69 FE_RN_45_0
*70 FE_RN_44_0
*71 FE_RN_43_0
*72 FE_RN_42_0
*73 FE_RN_41_0
*74 FE_RN_7
*75 FE_RN_6
*76 FE_RN_5
*77 FE_RN_4
*78 FE_RN_3
*79 FE_RN_40_0
*80 FE_RN_39_0
*81 FE_RN_38_0
*82 FE_RN_37_0
*83 FE_RN_36_0
*84 FE_RN_2
*85 FE_RN_35_0
*86 FE_RN_1
*87 FE_OCPN175_n294
*88 FE_OCPN174_n294
*89 FE_OCPN173_n128
*90 FE_OCPN170_n236
*91 FE_RN_26_0
*92 FE_RN_25_0
*93 FE_RN_24_0
*94 FE_RN_23_0
*95 FE_RN_22_0
*96 FE_RN_20_0
*97 FE_RN_17_0
*98 FE_RN_16_0
*99 FE_RN_14_0
*100 FE_RN_13_0
*101 FE_RN_12_0
*102 FE_RN_11_0
*103 FE_RN_10_0
*104 FE_RN_9_0
*105 FE_RN_8_0
*106 FE_RN_7_0
*107 FE_RN_6_0
*108 FE_RN_5_0
*109 FE_RN_4_0
*110 FE_RN_3_0
*111 FE_RN_2_0
*112 FE_RN_1_0
*113 FE_RN_0_0
*114 FE_OCPN169_n294
*115 FE_OFN262_n294
*116 FE_OFN261_data_in_2
*117 FE_OFN260_data_in_4
*118 FE_OFN259_weight_in_5
*119 FE_OFN258_FE_DBTN0_n34
*120 FE_OFN257_n294
*121 FE_OFN256_n279
*122 FE_OFN255_weight_in_7
*123 FE_OFN168_n108
*124 FE_OFN251_weight_in_3
*125 FE_OFN250_data_in_0
*126 FE_OFN249_n156
*127 FE_OFN248_n294
*128 FE_OFN247_weight_in_5
*129 FE_OFN167_n
*130 FE_OFN166_n
*131 FE_OFN165_n
*132 FE_OFN246_data_in_5
*133 FE_OFN245_data_in_0
*134 FE_OFN244_weight_in_1
*135 FE_OFN243_weight_in_6
*136 FE_OFN242_data_in_7
*137 FE_OFN240_weight_in_7
*138 FE_OFN239_fire_in
*139 FE_OFN238_weight_in_4
*140 FE_OFN236_weight_in_3
*141 FE_OFN235_weight_in_5
*142 FE_OFN163_n294
*143 FE_OFN161_n108
*144 FE_OFN159_n
*145 FE_OFN158_rst_n
*146 FE_OFN157_data_in_0
*147 FE_OFN156_data_in_1
*148 FE_OFN150_data_in_7
*149 FE_OFN149_weight_in_0
*150 FE_OFN142_weight_in_7
*151 FE_OFN141_n279
*152 FE_OFN139_n226
*153 FE_OFN138_n226
*154 FE_OFN131_n156
*155 FE_OFN130_n156
*156 FE_OFN129_n108
*157 FE_OFN125_n102
*158 FE_OFN124_n102
*159 FE_OFN123_n102
*160 FE_OFN122_FE_DBTN1_fire_in
*161 FE_OFN121_FE_DBTN1_fire_in
*162 FE_OFN120_FE_DBTN1_fire_in
*163 FE_OFN119_FE_DBTN1_fire_in
*164 FE_OFN118_FE_DBTN1_fire_in
*165 FE_OFN117_FE_DBTN1_fire_in
*166 FE_OFN116_FE_DBTN1_fire_in
*167 FE_OFN115_FE_DBTN1_fire_in
*168 FE_OFN114_FE_DBTN1_fire_in
*169 FE_OFN113_FE_DBTN1_fire_in
*170 FE_OFN112_FE_DBTN1_fire_in
*171 FE_OFN111_FE_DBTN1_fire_in
*172 FE_OFN110_FE_DBTN1_fire_in
*173 FE_OFN109_FE_DBTN1_fire_in
*174 FE_OFN108_FE_DBTN1_fire_in
*175 FE_OFN107_FE_DBTN1_fire_in
*176 FE_OFN106_FE_DBTN1_fire_in
*177 FE_OFN105_FE_DBTN1_fire_in
*178 FE_OFN104_FE_DBTN1_fire_in
*179 FE_OFN103_FE_DBTN1_fire_in
*180 FE_OFN102_FE_DBTN1_fire_in
*181 FE_OFN101_FE_DBTN1_fire_in
*182 FE_OFN100_FE_DBTN1_fire_in
*183 FE_OFN99_FE_DBTN1_fire_in
*184 FE_OFN98_FE_DBTN1_fire_in
*185 FE_OFN97_FE_DBTN1_fire_in
*186 FE_OFN92_n294
*187 FE_OFN89_fire_in
*188 FE_OFN88_fire_in
*189 FE_OFN87_fire_in
*190 FE_OFN86_fire_in
*191 FE_OFN85_fire_in
*192 FE_OFN84_fire_in
*193 FE_OFN83_fire_in
*194 FE_OFN82_fire_in
*195 FE_OFN81_fire_in
*196 FE_OFN80_fire_in
*197 FE_OFN79_fire_in
*198 FE_OFN78_fire_in
*199 FE_OFN77_fire_in
*200 FE_OFN75_rst_n
*201 FE_OFN74_rst_n
*202 FE_OFN73_rst_n
*203 FE_OFN72_rst_n
*204 FE_OFN71_rst_n
*205 FE_OFN70_rst_n
*206 FE_OFN69_rst_n
*207 FE_OFN68_rst_n
*208 FE_OFN67_rst_n
*209 FE_OFN66_rst_n
*210 FE_OFN65_rst_n
*211 FE_OFN64_rst_n
*212 FE_OFN63_rst_n
*213 FE_OFN62_rst_n
*214 FE_OFN61_rst_n
*215 FE_OFN60_rst_n
*216 FE_OFN59_rst_n
*217 FE_OFN58_rst_n
*218 FE_OFN57_rst_n
*219 FE_OFN56_rst_n
*220 FE_OFN55_rst_n
*221 FE_OFN54_rst_n
*222 FE_OFN53_rst_n
*223 FE_OFN52_rst_n
*224 FE_OFN51_rst_n
*225 FE_OFN50_rst_n
*226 FE_OFN49_rst_n
*227 FE_OFN48_rst_n
*228 FE_OFN47_rst_n
*229 FE_OFN46_rst_n
*230 FE_OFN45_rst_n
*231 FE_OFN44_rst_n
*232 FE_OFN43_rst_n
*233 FE_OFN41_data_out_0
*234 FE_OFN39_data_in_0
*235 FE_OFN35_data_in_1
*236 FE_OFN33_data_in_2
*237 FE_OFN30_data_in_3
*238 FE_OFN28_data_in_4
*239 FE_OFN27_data_in_5
*240 FE_OFN25_data_in_6
*241 FE_OFN19_weight_in_1
*242 FE_OFN17_weight_in_1
*243 FE_OFN16_weight_in_1
*244 FE_OFN15_weight_in_2
*245 FE_OFN12_weight_in_3
*246 FE_OFN11_weight_in_3
*247 FE_OFN10_weight_in_3
*248 FE_OFN9_weight_in_4
*249 FE_OFN6_weight_in_5
*250 FE_DBTN2_weight_in_5
*251 FE_DBTN1_fire_in
*252 FE_DBTN0_n34
*253 weight_in[7]
*254 weight_in[6]
*255 weight_in[5]
*256 weight_in[4]
*257 weight_in[3]
*258 weight_in[2]
*259 weight_in[1]
*260 weight_in[0]
*261 data_in[7]
*262 data_in[6]
*263 data_in[5]
*264 data_in[4]
*265 data_in[3]
*266 data_in[2]
*267 data_in[1]
*268 data_in[0]
*269 weight_out[7]
*270 weight_out[6]
*271 weight_out[5]
*272 weight_out[4]
*273 weight_out[3]
*274 weight_out[2]
*275 weight_out[1]
*276 weight_out[0]
*277 data_out[7]
*278 data_out[6]
*279 data_out[5]
*280 data_out[4]
*281 data_out[3]
*282 data_out[2]
*283 data_out[1]
*284 data_out[0]
*285 result[31]
*286 result[30]
*287 result[29]
*288 result[28]
*289 result[27]
*290 result[26]
*291 result[25]
*292 result[24]
*293 result[23]
*294 result[22]
*295 result[21]
*296 result[20]
*297 result[19]
*298 result[18]
*299 result[17]
*300 result[16]
*301 result[15]
*302 result[14]
*303 result[13]
*304 result[12]
*305 result[11]
*306 result[10]
*307 result[9]
*308 result[8]
*309 result[7]
*310 result[6]
*311 result[5]
*312 result[4]
*313 result[3]
*314 result[2]
*315 result[1]
*316 result[0]
*317 clk
*318 rst_n
*319 fire_in
*320 fire_out
*321 N37
*322 N38
*323 N39
*324 N40
*325 N41
*326 N42
*327 N43
*328 N44
*329 N45
*330 N46
*331 N47
*332 N48
*333 N49
*334 N50
*335 N51
*336 N52
*337 N53
*338 N54
*339 N55
*340 N56
*341 N57
*342 N58
*343 N59
*344 N60
*345 N61
*346 N62
*347 N63
*348 N64
*349 N65
*350 N66
*351 N67
*352 N68
*353 n35
*354 n74
*355 n75
*356 n85
*357 n86
*358 n87
*359 n88
*360 n89
*361 n90
*362 n91
*363 n92
*364 n93
*365 n94
*366 n95
*367 n96
*368 n97
*369 n98
*370 n99
*371 n100
*372 n101
*373 n103
*374 n104
*375 n105
*376 n106
*377 n107
*378 n108
*379 n110
*380 n111
*381 n112
*382 n113
*383 n115
*384 n116
*385 n117
*386 n119
*387 n121
*388 n122
*389 n124
*390 n125
*391 n126
*392 n127
*393 n128
*394 n129
*395 n130
*396 n131
*397 n132
*398 n133
*399 n134
*400 n135
*401 n136
*402 n137
*403 n138
*404 n139
*405 n140
*406 n141
*407 n142
*408 n143
*409 n144
*410 n145
*411 n146
*412 n147
*413 n148
*414 n150
*415 n151
*416 n152
*417 n153
*418 n154
*419 n155
*420 n156
*421 n157
*422 n158
*423 n160
*424 n161
*425 n162
*426 n164
*427 n165
*428 n166
*429 n167
*430 n168
*431 n169
*432 n170
*433 n171
*434 n172
*435 n173
*436 n174
*437 n175
*438 n176
*439 n177
*440 n178
*441 n179
*442 n180
*443 n181
*444 n182
*445 n183
*446 n184
*447 n185
*448 n186
*449 n187
*450 n188
*451 n189
*452 n190
*453 n191
*454 n192
*455 n193
*456 n194
*457 n195
*458 n196
*459 n197
*460 n198
*461 n199
*462 n200
*463 n201
*464 n202
*465 n203
*466 n204
*467 n205
*468 n206
*469 n207
*470 n208
*471 n209
*472 n210
*473 n211
*474 n212
*475 n213
*476 n214
*477 n215
*478 n216
*479 n217
*480 n218
*481 n219
*482 n220
*483 n221
*484 n222
*485 n223
*486 n224
*487 n226
*488 n228
*489 n230
*490 n231
*491 n232
*492 n233
*493 n234
*494 n235
*495 n236
*496 n237
*497 n239
*498 n240
*499 n241
*500 n242
*501 n243
*502 n244
*503 n245
*504 n246
*505 n247
*506 n248
*507 n249
*508 n250
*509 n251
*510 n253
*511 n254
*512 n255
*513 n256
*514 n257
*515 n258
*516 n259
*517 n260
*518 n261
*519 n262
*520 n263
*521 n264
*522 n265
*523 n266
*524 n267
*525 n268
*526 n269
*527 n270
*528 n271
*529 n272
*530 n273
*531 n275
*532 n276
*533 n277
*534 n279
*535 n280
*536 n281
*537 n282
*538 n283
*539 n284
*540 n285
*541 n286
*542 n287
*543 n288
*544 n289
*545 n290
*546 n291
*547 n292
*548 n293
*549 n294
*550 n295
*551 n296
*552 n297
*553 n298
*554 n299
*555 n300
*556 n301
*557 n303
*558 n304
*559 n305
*560 n306
*561 n307
*562 n308
*563 n309
*564 n310
*565 n311
*566 n312
*567 n313
*568 n314
*569 n315
*570 n316
*571 n317
*572 n318
*573 n319
*574 n320
*575 n321
*576 n322
*577 n323
*578 n324
*579 n325
*580 n326
*581 n327
*582 n328
*583 n329
*584 n330
*585 n331
*586 n332
*587 n333
*588 n334
*589 n335
*590 n337
*591 n338
*592 n339
*593 n340
*594 n341
*595 n342
*596 n343
*597 n344
*598 n345
*599 n346
*600 n347
*601 n348
*602 n349
*603 n350
*604 n351
*605 n352
*606 n353
*607 n354
*608 n355
*609 n356
*610 n358
*611 n359
*612 n360
*613 n361
*614 n362
*615 n364
*616 n365
*617 n366
*618 n367
*619 n368
*620 n369
*621 n3701
*622 n371
*623 n372
*624 n373
*625 n374
*626 n375
*627 n376
*628 n377
*629 n378
*630 n381
*631 n382
*632 n383
*633 n384
*634 n385
*635 n386
*636 n387
*637 n388
*638 n389
*639 n3901
*640 n391
*641 n392
*642 n393
*643 n394
*644 n395
*645 n396
*646 n397
*647 n398
*648 n399
*649 n4001
*650 n401
*651 n402
*652 n403
*653 n404
*654 n405
*655 n406
*656 n407
*657 n408
*658 n409
*659 n4101
*660 n411
*661 n412
*662 n413
*663 n414
*664 n415
*665 n416
*666 n417
*667 n418
*668 n419
*669 n4201
*670 n422
*671 n423
*672 n424
*673 n425
*674 n426
*675 n427
*676 n428
*677 n429
*678 n4301
*679 n431
*680 n432
*681 n433
*682 n434
*683 n437
*684 n438
*685 n439
*686 n4401
*687 n441
*688 n442
*689 n443
*690 n444
*691 n445
*692 n447
*693 n448
*694 n449
*695 n4501
*696 n451
*697 n452
*698 n453
*699 n454
*700 n455
*701 n456
*702 n458
*703 n459
*704 n4601
*705 n461
*706 n462
*707 n463
*708 n464
*709 n465
*710 n466
*711 n467
*712 n468
*713 n469
*714 n4701
*715 n471
*716 n472
*717 n473
*718 n474
*719 n475
*720 n477
*721 n478
*722 n479
*723 n4801
*724 n481
*725 n482
*726 n483
*727 n484
*728 n485
*729 n487
*730 n488
*731 n489
*732 n4901
*733 n491
*734 n492
*735 n493
*736 n494
*737 n495
*738 n497
*739 n526
*740 n527
*741 n528
*742 n5301
*743 n531
*744 n532
*745 n533
*746 n534
*747 n535
*748 n536
*749 n537
*750 n538
*751 n539
*752 n5401
*753 n543
*754 n544
*755 n545
*756 n546
*757 n547
*758 n548
*759 n549
*760 n5501
*761 n551
*762 n552
*763 n553
*764 n554
*765 n555
*766 n556
*767 n557
*768 n558
*769 n559
*770 n5601
*771 n562
*772 n563
*773 n564
*774 n565
*775 n566
*776 n567
*777 n568
*778 n569
*779 n5701
*780 n571
*781 n572
*782 n573
*783 n574
*784 n575
*785 n576
*786 n577
*787 n578
*788 n579
*789 n5801
*790 n581
*791 n582
*792 n583
*793 n584
*794 n585
*795 n587
*796 n588
*797 n589
*798 n5901
*799 n591
*800 n592
*801 n594
*802 n595
*803 n596
*804 n597
*805 n598
*806 n599
*807 n6001
*808 n601
*809 n602
*810 n603
*811 n604
*812 n605
*813 n606
*814 n607
*815 n609
*816 n613
*817 n614
*818 n615
*819 n616
*820 n617
*821 n618
*822 n619
*823 n6201
*824 n621
*825 n622
*826 n623
*827 n624
*828 n625
*829 n626
*830 n627
*831 n628
*832 n629
*833 n6301
*834 n631
*835 n632
*836 n633
*837 n634
*838 n635
*839 n636
*840 n637
*841 n638
*842 n639
*843 n6401
*844 n641
*845 n642
*846 n643
*847 n644
*848 tmp[31]
*849 tmp[30]
*850 tmp[29]
*851 tmp[28]
*852 tmp[27]
*853 tmp[26]
*854 tmp[25]
*855 tmp[24]
*856 tmp[23]
*857 tmp[22]
*858 tmp[21]
*859 tmp[20]
*860 tmp[19]
*861 tmp[18]
*862 tmp[17]
*863 tmp[16]
*864 tmp[15]
*865 tmp[14]
*866 tmp[13]
*867 tmp[12]
*868 tmp[11]
*869 tmp[10]
*870 tmp[9]
*871 tmp[8]
*872 tmp[7]
*873 tmp[6]
*874 tmp[5]
*875 tmp[4]
*876 tmp[3]
*877 tmp[2]
*878 tmp[1]
*879 tmp[0]
*880 FE_PSC287_n222
*881 FE_PSC286_n544
*882 FE_PSC285_n565
*883 FE_PSC284_FE_OFN25_data_in_6
*884 FE_PSC283_n110
*885 FE_PSC281_n205
*886 FE_PSC280_n555
*887 FE_PDC279_weight_in_3
*888 FE_PDC278_data_in_6
*889 FE_OCPC278_FE_OFN30_data_in_3
*890 FE_RC_218_0
*891 FE_RC_217_0
*892 FE_RC_216_0
*893 FE_RC_215_0
*894 FE_RC_214_0
*895 FE_RC_213_0
*896 FE_RC_212_0
*897 FE_RC_211_0
*898 FE_RC_210_0
*899 FE_RC_209_0
*900 FE_RC_208_0
*901 FE_RC_207_0
*902 FE_RC_206_0
*903 FE_RC_205_0
*904 FE_RC_204_0
*905 U413_dup
*906 FE_RC_124_0_dup
*907 FE_RC_203_0
*908 FE_RC_202_0
*909 FE_RC_201_0
*910 FE_RC_200_0
*911 FE_RC_199_0
*912 FE_RC_198_0
*913 FE_RC_197_0
*914 FE_RC_196_0
*915 FE_RC_195_0
*916 FE_RC_194_0
*917 FE_RC_192_0
*918 FE_OFC191_data_in_6_dup
*919 FE_OCPC271_n255
*920 FE_RC_191_0
*921 FE_RC_190_0
*922 FE_RC_189_0
*923 FE_RC_188_0
*924 FE_OCPC277_weight_in_3
*925 FE_OCPC276_weight_in_3
*926 FE_OCPC274_weight_in_3
*927 FE_OCPC273_weight_in_3
*928 FE_OCPC272_weight_in_3
*929 FE_OCPC271_weight_in_3
*930 FE_RC_187_0
*931 FE_RC_184_0
*932 FE_RC_183_0
*933 FE_RC_182_0
*934 FE_RC_181_0
*935 FE_RC_180_0
*936 FE_RC_179_0
*937 FE_RC_178_0
*938 FE_RC_177_0
*939 FE_RC_176_0
*940 FE_RC_175_0
*941 FE_RC_174_0
*942 FE_RC_173_0
*943 FE_RC_172_0
*944 FE_RC_171_0
*945 FE_RC_170_0
*946 FE_RC_169_0
*947 FE_RC_168_0
*948 FE_RC_167_0
*949 FE_RC_166_0
*950 FE_RC_165_0
*951 FE_RC_164_0
*952 FE_RC_162_0
*953 FE_RC_161_0
*954 FE_RC_160_0
*955 FE_RC_159_0
*956 FE_RC_158_0
*957 FE_RC_157_0
*958 FE_RC_155_0
*959 FE_RC_154_0
*960 FE_RC_153_0
*961 FE_RC_152_0
*962 FE_RC_151_0
*963 FE_RC_150_0
*964 FE_RC_149_0
*965 FE_RC_148_0
*966 FE_RC_147_0
*967 FE_RC_141_0
*968 FE_RC_140_0
*969 FE_RC_139_0
*970 FE_RC_137_0
*971 FE_RC_135_0
*972 FE_RC_134_0
*973 FE_RC_133_0
*974 FE_RC_132_0
*975 FE_RC_131_0
*976 FE_RC_130_0
*977 FE_RC_129_0
*978 FE_RC_128_0
*979 FE_RC_127_0
*980 FE_RC_126_0
*981 FE_RC_125_0
*982 FE_RC_124_0
*983 FE_RC_123_0
*984 FE_RC_122_0
*985 FE_RC_121_0
*986 FE_RC_120_0
*987 FE_RC_119_0
*988 FE_RC_118_0
*989 FE_RC_117_0
*990 FE_RC_116_0
*991 U514_dup
*992 FE_RC_113_0
*993 FE_RC_112_0
*994 FE_RC_111_0
*995 FE_RC_110_0
*996 FE_RC_109_0
*997 FE_RC_108_0
*998 FE_RC_105_0
*999 FE_RC_104_0
*1000 FE_RC_103_0
*1001 FE_RC_99_0
*1002 FE_RC_98_0
*1003 FE_RC_97_0
*1004 FE_RC_96_0
*1005 FE_RC_94_0
*1006 FE_RC_93_0
*1007 FE_RC_92_0
*1008 FE_RC_91_0
*1009 FE_RC_90_0
*1010 FE_RC_89_0
*1011 FE_RC_84_0
*1012 FE_RC_80_0
*1013 FE_RC_79_0
*1014 FE_RC_78_0
*1015 FE_RC_77_0
*1016 FE_RC_76_0
*1017 FE_RC_75_0
*1018 FE_RC_74_0
*1019 FE_RC_73_0
*1020 FE_RC_71_0
*1021 FE_OCPC263_data_in_4
*1022 FE_OCPC262_data_in_4
*1023 FE_RC_37_0_dup
*1024 U243_dup
*1025 U474_dup
*1026 FE_OCPC261_n102
*1027 FE_OCPC260_n102
*1028 FE_OCPC259_n102
*1029 FE_OCPC258_n102
*1030 FE_OCPC253_n294_dup
*1031 U211_dup
*1032 FE_RC_70_0
*1033 FE_RC_68_0
*1034 FE_RC_67_0
*1035 FE_RC_66_0
*1036 FE_RC_65_0
*1037 FE_RC_64_0
*1038 FE_RC_63_0
*1039 U402_dup
*1040 FE_OCPC255_n294
*1041 FE_OCPC254_n294
*1042 FE_OCPC253_n294
*1043 FE_OCPC252_n294
*1044 FE_OCPC251_n294
*1045 FE_OCPC250_n294
*1046 FE_OCPC249_n294
*1047 FE_OCPC248_n294
*1048 FE_RC_60_0
*1049 FE_RC_55_0
*1050 FE_OCPC247_n128
*1051 FE_RC_53_0
*1052 FE_RC_52_0
*1053 FE_RC_51_0
*1054 FE_RC_43_0
*1055 FE_RC_41_0
*1056 FE_RC_40_0
*1057 FE_OCPC244_n236
*1058 FE_RC_39_0
*1059 FE_RC_38_0
*1060 FE_RC_37_0
*1061 FE_RC_36_0
*1062 FE_RC_35_0
*1063 FE_RC_34_0
*1064 FE_RC_28_0
*1065 FE_RC_27_0
*1066 FE_RC_26_0
*1067 FE_RC_24_0
*1068 FE_RC_23_0
*1069 FE_RC_22_0
*1070 FE_RC_21_0
*1071 FE_RC_20_0
*1072 FE_RC_19_0
*1073 FE_RC_17_0
*1074 FE_RC_15_0
*1075 FE_RC_14_0
*1076 FE_RC_13_0
*1077 FE_RC_12_0
*1078 FE_RC_11_0
*1079 FE_RC_10_0
*1080 FE_RC_6_0
*1081 FE_RC_5_0
*1082 FE_RC_4_0
*1083 FE_RC_3_0
*1084 FE_RC_2_0
*1085 FE_RC_1_0
*1086 FE_RC_0_0
*1087 FE_OFC261_data_in_2
*1088 FE_OFC258_FE_DBTN0_n34
*1089 FE_OFC255_weight_in_7
*1090 FE_OFC242_n108
*1091 FE_OFC250_data_in_0
*1092 FE_OFC249_n156
*1093 FE_OFC247_weight_in_5
*1094 FE_OFC241_weight_in_7
*1095 FE_OFC239_weight_in_7
*1096 FE_OFC238_weight_in_7
*1097 FE_OFC246_data_in_5
*1098 FE_OFC245_data_in_0
*1099 FE_OFC244_weight_in_1
*1100 FE_OFC243_weight_in_6
*1101 FE_OFC242_data_in_7
*1102 FE_OFC240_weight_in_7
*1103 FE_OFC239_fire_in
*1104 FE_OFC238_weight_in_4
*1105 FE_OFC235_weight_in_5
*1106 FE_OFC234_FE_DBTN2_weight_in_5
*1107 FE_OFC233_FE_DBTN2_weight_in_5
*1108 FE_OFC231_n108
*1109 FE_OFC230_n108
*1110 FE_OFC229_weight_in_7
*1111 FE_OFC227_n412
*1112 FE_OFC225_n428
*1113 FE_OFC224_n533
*1114 FE_OFC223_n582
*1115 FE_OFC222_n545
*1116 FE_OFC221_n156
*1117 FE_OFC220_n156
*1118 FE_OFC216_weight_in_5
*1119 FE_OFC213_n424
*1120 FE_OFC202_data_in_3
*1121 FE_OFC201_weight_in_2
*1122 FE_OFC199_data_in_2
*1123 FE_OFC197_weight_in_4
*1124 FE_OFC196_data_in_0
*1125 FE_OFC195_data_in_0
*1126 FE_OFC191_data_in_6
*1127 FE_OFC190_data_in_5
*1128 FE_OFC183_weight_in_1
*1129 FE_OFC182_weight_in_1
*1130 FE_OFC181_weight_in_1
*1131 FE_OFC180_data_in_7
*1132 FE_OFC178_data_in_1
*1133 FE_OFC177_data_in_1
*1134 FE_OFC174_weight_in_0
*1135 FE_OFC172_weight_in_0
*1136 FE_OFC158_rst_n
*1137 FE_OFC139_n226
*1138 FE_OFC138_n226
*1139 FE_OFC122_FE_DBTN1_fire_in
*1140 FE_OFC121_FE_DBTN1_fire_in
*1141 FE_OFC120_FE_DBTN1_fire_in
*1142 FE_OFC119_FE_DBTN1_fire_in
*1143 FE_OFC118_FE_DBTN1_fire_in
*1144 FE_OFC117_FE_DBTN1_fire_in
*1145 FE_OFC116_FE_DBTN1_fire_in
*1146 FE_OFC115_FE_DBTN1_fire_in
*1147 FE_OFC114_FE_DBTN1_fire_in
*1148 FE_OFC113_FE_DBTN1_fire_in
*1149 FE_OFC112_FE_DBTN1_fire_in
*1150 FE_OFC111_FE_DBTN1_fire_in
*1151 FE_OFC110_FE_DBTN1_fire_in
*1152 FE_OFC109_FE_DBTN1_fire_in
*1153 FE_OFC108_FE_DBTN1_fire_in
*1154 FE_OFC107_FE_DBTN1_fire_in
*1155 FE_OFC106_FE_DBTN1_fire_in
*1156 FE_OFC105_FE_DBTN1_fire_in
*1157 FE_OFC104_FE_DBTN1_fire_in
*1158 FE_OFC103_FE_DBTN1_fire_in
*1159 FE_OFC102_FE_DBTN1_fire_in
*1160 FE_OFC101_FE_DBTN1_fire_in
*1161 FE_OFC100_FE_DBTN1_fire_in
*1162 FE_OFC99_FE_DBTN1_fire_in
*1163 FE_OFC98_FE_DBTN1_fire_in
*1164 FE_OFC97_FE_DBTN1_fire_in
*1165 FE_OFC89_fire_in
*1166 FE_OFC88_fire_in
*1167 FE_OFC87_fire_in
*1168 FE_OFC86_fire_in
*1169 FE_OFC85_fire_in
*1170 FE_OFC84_fire_in
*1171 FE_OFC83_fire_in
*1172 FE_OFC82_fire_in
*1173 FE_OFC81_fire_in
*1174 FE_OFC80_fire_in
*1175 FE_OFC79_fire_in
*1176 FE_OFC78_fire_in
*1177 FE_OFC77_fire_in
*1178 FE_OFC75_rst_n
*1179 FE_OFC74_rst_n
*1180 FE_OFC73_rst_n
*1181 FE_OFC72_rst_n
*1182 FE_OFC71_rst_n
*1183 FE_OFC70_rst_n
*1184 FE_OFC69_rst_n
*1185 FE_OFC68_rst_n
*1186 FE_OFC67_rst_n
*1187 FE_OFC66_rst_n
*1188 FE_OFC65_rst_n
*1189 FE_OFC64_rst_n
*1190 FE_OFC63_rst_n
*1191 FE_OFC62_rst_n
*1192 FE_OFC61_rst_n
*1193 FE_OFC60_rst_n
*1194 FE_OFC59_rst_n
*1195 FE_OFC58_rst_n
*1196 FE_OFC57_rst_n
*1197 FE_OFC56_rst_n
*1198 FE_OFC55_rst_n
*1199 FE_OFC54_rst_n
*1200 FE_OFC53_rst_n
*1201 FE_OFC52_rst_n
*1202 FE_OFC51_rst_n
*1203 FE_OFC50_rst_n
*1204 FE_OFC49_rst_n
*1205 FE_OFC48_rst_n
*1206 FE_OFC47_rst_n
*1207 FE_OFC46_rst_n
*1208 FE_OFC45_rst_n
*1209 FE_OFC44_rst_n
*1210 FE_OFC43_rst_n
*1211 FE_OFC41_data_out_0
*1212 FE_DBTC1_fire_in
*1213 tmp_reg_13_
*1214 tmp_reg_12_
*1215 tmp_reg_11_
*1216 tmp_reg_10_
*1217 tmp_reg_8_
*1218 tmp_reg_5_
*1219 tmp_reg_2_
*1220 tmp_reg_1_
*1221 tmp_reg_0_
*1222 tmp_reg_3_
*1223 tmp_reg_7_
*1224 tmp_reg_9_
*1225 tmp_reg_14_
*1226 tmp_reg_16_
*1227 tmp_reg_24_
*1228 tmp_reg_20_
*1229 tmp_reg_27_
*1230 tmp_reg_25_
*1231 tmp_reg_23_
*1232 tmp_reg_21_
*1233 tmp_reg_19_
*1234 tmp_reg_17_
*1235 tmp_reg_26_
*1236 tmp_reg_31_
*1237 tmp_reg_15_
*1238 tmp_reg_29_
*1239 tmp_reg_18_
*1240 tmp_reg_30_
*1241 tmp_reg_28_
*1242 tmp_reg_22_
*1243 data_out_reg_6_
*1244 result_reg_28_
*1245 result_reg_13_
*1246 tmp_reg_4_
*1247 data_out_reg_2_
*1248 data_out_reg_4_
*1249 weight_out_reg_6_
*1250 weight_out_reg_1_
*1251 fire_out_reg
*1252 weight_out_reg_2_
*1253 weight_out_reg_0_
*1254 data_out_reg_7_
*1255 data_out_reg_5_
*1256 data_out_reg_3_
*1257 data_out_reg_1_
*1258 data_out_reg_0_
*1259 weight_out_reg_5_
*1260 weight_out_reg_3_
*1261 weight_out_reg_4_
*1262 weight_out_reg_7_
*1263 result_reg_31_
*1264 result_reg_30_
*1265 result_reg_29_
*1266 result_reg_27_
*1267 result_reg_26_
*1268 result_reg_25_
*1269 result_reg_24_
*1270 result_reg_23_
*1271 result_reg_22_
*1272 result_reg_21_
*1273 result_reg_20_
*1274 result_reg_19_
*1275 result_reg_18_
*1276 result_reg_17_
*1277 result_reg_16_
*1278 result_reg_15_
*1279 result_reg_14_
*1280 result_reg_12_
*1281 result_reg_11_
*1282 result_reg_10_
*1283 result_reg_9_
*1284 result_reg_8_
*1285 result_reg_7_
*1286 result_reg_6_
*1287 result_reg_5_
*1288 result_reg_4_
*1289 result_reg_3_
*1290 result_reg_2_
*1291 result_reg_1_
*1292 result_reg_0_
*1293 tmp_reg_6_
*1294 U69
*1295 U73
*1296 U77
*1297 U78
*1298 U79
*1299 U80
*1300 U81
*1301 U82
*1302 U83
*1303 U85
*1304 U92
*1305 U93
*1306 U95
*1307 U96
*1308 U97
*1309 U98
*1310 U99
*1311 U100
*1312 U101
*1313 U102
*1314 U103
*1315 U105
*1316 U106
*1317 U107
*1318 U112
*1319 U113
*1320 U114
*1321 U115
*1322 U116
*1323 U118
*1324 U119
*1325 U120
*1326 U121
*1327 U122
*1328 U123
*1329 U124
*1330 U125
*1331 U126
*1332 U127
*1333 U128
*1334 U130
*1335 U131
*1336 U132
*1337 U133
*1338 U134
*1339 U136
*1340 U137
*1341 U138
*1342 U139
*1343 U140
*1344 U141
*1345 U142
*1346 U143
*1347 U144
*1348 U145
*1349 U146
*1350 U147
*1351 U148
*1352 U149
*1353 U150
*1354 U151
*1355 U152
*1356 U154
*1357 U155
*1358 U156
*1359 U157
*1360 U158
*1361 U159
*1362 U160
*1363 U161
*1364 U162
*1365 U163
*1366 U164
*1367 U165
*1368 U166
*1369 U167
*1370 U168
*1371 U169
*1372 U170
*1373 U171
*1374 U172
*1375 U173
*1376 U174
*1377 U179
*1378 U180
*1379 U181
*1380 U182
*1381 U183
*1382 U184
*1383 U185
*1384 U186
*1385 U187
*1386 U188
*1387 U189
*1388 U190
*1389 U191
*1390 U192
*1391 U193
*1392 U194
*1393 U195
*1394 U196
*1395 U197
*1396 U198
*1397 U199
*1398 U200
*1399 U201
*1400 U202
*1401 U203
*1402 U204
*1403 U205
*1404 U208
*1405 U209
*1406 U210
*1407 U211
*1408 U212
*1409 U213
*1410 U214
*1411 U215
*1412 U216
*1413 U217
*1414 U218
*1415 U219
*1416 U220
*1417 U222
*1418 U223
*1419 U224
*1420 U225
*1421 U227
*1422 U228
*1423 U229
*1424 U230
*1425 U231
*1426 U232
*1427 U233
*1428 U235
*1429 U236
*1430 U238
*1431 U239
*1432 U241
*1433 U242
*1434 U245
*1435 U246
*1436 U247
*1437 U249
*1438 U250
*1439 U251
*1440 U252
*1441 U253
*1442 U254
*1443 U255
*1444 U257
*1445 U258
*1446 U259
*1447 U260
*1448 U261
*1449 U262
*1450 U263
*1451 U264
*1452 U265
*1453 U266
*1454 U267
*1455 U268
*1456 U269
*1457 U271
*1458 U272
*1459 U273
*1460 U274
*1461 U275
*1462 U276
*1463 U277
*1464 U278
*1465 U279
*1466 U280
*1467 U281
*1468 U282
*1469 U283
*1470 U284
*1471 U285
*1472 U286
*1473 U287
*1474 U288
*1475 U289
*1476 U290
*1477 U291
*1478 U292
*1479 U293
*1480 U294
*1481 U295
*1482 U296
*1483 U297
*1484 U298
*1485 U299
*1486 U300
*1487 U301
*1488 U302
*1489 U303
*1490 U305
*1491 U306
*1492 U307
*1493 U309
*1494 U310
*1495 U311
*1496 U317
*1497 U331
*1498 U347
*1499 U363
*1500 U373
*1501 U374
*1502 U375
*1503 U376
*1504 U377
*1505 U379
*1506 U380
*1507 U382
*1508 U383
*1509 U384
*1510 U385
*1511 U386
*1512 U387
*1513 U393
*1514 U395
*1515 U396
*1516 U398
*1517 U399
*1518 U400
*1519 U401
*1520 U403
*1521 U404
*1522 U405
*1523 U406
*1524 U407
*1525 U408
*1526 U410
*1527 U411
*1528 U412
*1529 U413
*1530 U415
*1531 U416
*1532 U418
*1533 U421
*1534 U422
*1535 U426
*1536 U428
*1537 U429
*1538 U431
*1539 U432
*1540 U433
*1541 U434
*1542 U435
*1543 U437
*1544 U438
*1545 U439
*1546 U440
*1547 U442
*1548 U444
*1549 U446
*1550 U449
*1551 U450
*1552 U451
*1553 U452
*1554 U453
*1555 U454
*1556 U455
*1557 U459
*1558 U461
*1559 U462
*1560 U463
*1561 U465
*1562 U466
*1563 U468
*1564 U469
*1565 U470
*1566 U471
*1567 U472
*1568 U473
*1569 U474
*1570 U475
*1571 U477
*1572 U478
*1573 U479
*1574 U480
*1575 U481
*1576 U484
*1577 U485
*1578 U486
*1579 U487
*1580 U488
*1581 U489
*1582 U490
*1583 U491
*1584 U493
*1585 U495
*1586 U496
*1587 U501
*1588 U502
*1589 U503
*1590 U506
*1591 U507
*1592 U510
*1593 U511
*1594 U512
*1595 U513
*1596 U514
*1597 U515
*1598 U516
*1599 U517
*1600 U520
*1601 U521
*1602 U522
*1603 U525
*1604 U526
*1605 U527
*1606 U529
*1607 U530
*1608 U531
*1609 U532
*1610 U533
*1611 U534
*1612 U537
*1613 U538
*1614 U539
*1615 U540
*1616 U542
*1617 U543
*1618 U544
*1619 U545
*1620 U546
*1621 U547
*1622 U548
*1623 U549
*1624 U550
*1625 U551
*1626 U552
*1627 U553
*1628 U554
*1629 U555
*1630 U556
*1631 U557
*1632 U558
*1633 U560
*1634 U561
*1635 U564
*1636 U565
*1637 U566
*1638 U567
*1639 U568
*1640 U569
*1641 U570
*1642 U571
*1643 U572
*1644 U573
*1645 U574
*1646 U575
*1647 U576
*1648 U577
*1649 U578
*1650 U582
*1651 U584
*1652 U586
*1653 U587
*1654 U592
*1655 U593
*1656 U594
*1657 U595
*1658 U596
*1659 U598
*1660 U599
*1661 U600
*1662 U601
*1663 U602
*1664 U603
*1665 U604
*1666 U605
*1667 U606
*1668 U612
*1669 U613
*1670 U618
*1671 U619
*1672 U621
*1673 U622
*1674 U623
*1675 U624
*1676 U625
*1677 U627
*1678 U628
*1679 U667
*1680 U668
*1681 U669
*1682 U670
*1683 U672
*1684 U674
*1685 U675
*1686 U677
*1687 U678
*1688 U679
*1689 U680
*1690 U681
*1691 U682
*1692 U683
*1693 U685
*1694 U686
*1695 U687
*1696 U688
*1697 U689
*1698 U690
*1699 U691
*1700 U692
*1701 U693
*1702 U694
*1703 U695
*1704 U696
*1705 U698
*1706 U699
*1707 U700
*1708 U701
*1709 U702
*1710 U703
*1711 U704
*1712 U705


*PORTS

*317 I *C 12 85.2
*318 I *C 17 85.2
*319 I *C 55 85.2
*253 I *C 47.5 85.2
*254 I *C 44 85.2
*255 I *C 40.5 85.2
*256 I *C 37 85.2
*257 I *C 33.5 85.2
*258 I *C 30 85.2
*259 I *C 26.5 85.2
*260 I *C 23 85.2
*261 I *C 0 55
*262 I *C 0 50
*263 I *C 0 45
*264 I *C 0 40
*265 I *C 0 35
*266 I *C 0 30
*267 I *C 0 25
*268 I *C 0 20
*320 O *C 55 0
*269 O *C 47.5 0
*270 O *C 44 0
*271 O *C 40.5 0
*272 O *C 37 0
*273 O *C 33.5 0
*274 O *C 30 0
*275 O *C 26.5 0
*276 O *C 23 0
*277 O *C 196.8 55
*278 O *C 196.8 50
*279 O *C 196.8 45
*280 O *C 196.8 40
*281 O *C 196.8 35
*282 O *C 196.8 30
*283 O *C 196.8 25
*284 O *C 196.8 20
*285 O *C 178.5 0
*286 O *C 175 0
*287 O *C 171.5 0
*288 O *C 168 0
*289 O *C 164.5 0
*290 O *C 161 0
*291 O *C 157.5 0
*292 O *C 154 0
*293 O *C 150.5 0
*294 O *C 147 0
*295 O *C 143.5 0
*296 O *C 140 0
*297 O *C 136.5 0
*298 O *C 133 0
*299 O *C 129.5 0
*300 O *C 126 0
*301 O *C 122.5 0
*302 O *C 119 0
*303 O *C 115.5 0
*304 O *C 112 0
*305 O *C 108.5 0
*306 O *C 105 0
*307 O *C 101.5 0
*308 O *C 98 0
*309 O *C 94.5 0
*310 O *C 91 0
*311 O *C 87.5 0
*312 O *C 84 0
*313 O *C 80.5 0
*314 O *C 77 0
*315 O *C 73.5 0
*316 O *C 70 0


*D_NET *1 0.00502511

*CONN
*I *1581:A I *C 75 63.8 *L 0.0126 *D ADDFHX4TS
*I *880:Y O *C 82.2 48.6 *L 0 *D BUFX6TS

*CAP
1 *1581:A 5.309e-05
2 *880:Y 0.00011208
3 *1:2 0.00032673
4 *1:3 0.00032673
5 *1:4 0.00047018
6 *1:5 0.00047018
7 *1:6 0.00014114
8 *1:7 8.062e-05
9 *1:8 0.0002589
10 *1:9 0.0002589
11 *1:10 0.00060539
12 *1:11 0.00066591
13 *1:12 0.00018493
14 *1:13 0.00024307
15 *1:14 0.0004427
16 *1:15 0.00038456

*RES
1 *1:3 *880:Y 3
2 *1:3 *1:2 1.49
3 *1:5 *1:2 3
4 *1:5 *1:4 1.341
5 *1:13 *1:4 3
6 *1:13 *1:12 1.043
7 *1:6 *1:12 3
8 *1:7 *1:6 0.447
9 *1:8 *1:7 0.0745
10 *1:9 *1:8 1.192
11 *1:9 *1:10 0.0745
12 *1:15 *1581:A 6
13 *1:11 *1:10 2.682
14 *1:14 *1:15 2.235
15 *1:14 *1:11 3
*END

*D_NET *2 0.00283661

*CONN
*I *1686:B I *C 101.4 75 *L 0.00231 *D NAND2X1TS
*I *1317:A I *C 103 75.4 *L 0.00379 *D INVX2TS
*I *881:Y O *C 98.6 65 *L 0 *D CLKBUFX2TS

*CAP
1 *1686:B 0.00011208
2 *1317:A 0.00011208
3 *881:Y 5.136e-05
4 *2:3 0.00037078
5 *2:4 0.00041915
6 *2:5 0.00020287
7 *2:6 0.00020287
8 *2:7 0.00019275
9 *2:8 0.00020252
10 *2:9 9.378e-05
11 *2:10 9.378e-05
12 *2:11 9.453e-05
13 *2:12 9.453e-05
14 *2:13 0.00014869
15 *2:14 0.00022242
16 *2:15 0.00022242

*RES
1 *2:11 *1686:B 3
2 *2:12 *2:11 0.149
3 *2:14 *2:12 3
4 *2:14 *2:15 0.596
5 *2:7 *1317:A 3
6 *2:7 *2:15 3
7 *2:8 *2:7 1.192
8 *2:3 *2:8 0.149
9 *2:4 *2:3 1.937
10 *2:5 *2:4 3
11 *2:6 *2:5 1.192
12 *2:9 *2:6 3
13 *2:10 *2:9 0.447
14 *2:13 *2:10 3
15 *881:Y *2:13 0.42
*END

*D_NET *3 0.00199573

*CONN
*I *1692:A I *C 19.8 63.8 *L 0.00229 *D NAND2X1TS
*I *900:B0 I *C 19 67.8 *L 0.00236 *D OAI21X1TS
*I *882:Y O *C 14.2 67 *L 0 *D CLKBUFX2TS

*CAP
1 *1692:A 5.309e-05
2 *900:B0 5.309e-05
3 *882:Y 0.00011208
4 *3:3 0.00010053
5 *3:4 0.00013008
6 *3:5 0.00012067
7 *3:6 0.00016693
8 *3:7 0.00013396
9 *3:8 0.0002787
10 *3:9 0.0002787
11 *3:10 8.722e-05
12 *3:8 *776:7 2.185e-05
13 *3:9 *776:3 2.185e-05
14 *3:8 *776:3 0.00019664
15 *3:9 *776:4 0.00019664
16 *3:3 *776:9 2.185e-05
17 *3:4 *776:8 2.185e-05

*RES
1 *3:7 *1692:A 6
2 *3:7 *3:6 0.745
3 *3:5 *3:6 0.298
4 *3:4 *900:B0 6
5 *3:5 *3:4 0.596
6 *3:4 *3:3 0.149
7 *3:8 *3:3 3
8 *3:9 *3:8 1.788
9 *3:10 *3:9 3
10 *882:Y *3:10 3
*END

*D_NET *4 0.00705338

*CONN
*I *1243:D I *C 132.6 50.2 *L 0.000904 *D DFFRXLTS
*I *969:B I *C 99.4 53.4 *L 0.00901 *D XOR2X4TS
*I *883:Y O *C 103.4 48.6 *L 0 *D BUFX4TS

*CAP
1 *1243:D 5.309e-05
2 *969:B 4.63e-05
3 *883:Y 5.309e-05
4 *4:3 9.33e-05
5 *4:4 9.33e-05
6 *4:5 0.00018898
7 *4:6 0.00014061
8 *4:7 0.00048433
9 *4:8 0.0005327
10 *4:9 0.0002662
11 *4:10 0.00027835
12 *4:11 0.00026316
13 *4:12 0.00026316
14 *4:13 0.00024145
15 *4:14 0.00018331
16 *4:15 0.00022961
17 *4:16 0.00014363
18 *4:17 0.00037297
19 *4:18 3.885e-05
20 *4:19 0.00023057
21 *4:20 6.631e-05
22 *4:21 8.722e-05
23 *4:22 6.869e-05
24 *4:19 *148:9 0.00013109
25 *4:17 *148:7 0.00013109
26 *4:17 *148:7 0.00024033
27 *4:15 *148:8 0.00024033
28 *4:22 *317:386 8.739e-05
29 *4:20 *317:387 8.739e-05
30 *4:11 *317:386 0.00032773
31 *4:12 *317:387 0.00032773
32 *4:7 *317:396 8.987e-05
33 *4:8 *317:397 8.987e-05
34 *4:7 *317:387 0.00030588
35 *4:8 *317:401 0.00030588
36 *4:9 *317:386 0.00012582
37 *4:10 *317:387 0.00012582
38 *4:9 *317:387 8.99e-06
39 *4:10 *317:401 8.99e-06

*RES
1 *4:21 *1243:D 6
2 *4:22 *4:21 3
3 *4:20 *4:22 0.596
4 *4:11 *4:20 0.0745
5 *4:12 *4:11 2.235
6 *4:9 *4:12 0.0745
7 *4:10 *4:9 2.235
8 *4:10 *4:7 0.149